/*---------------------------------------------------------------------------*\
  =========                 |
  \\      /  F ield         | OpenFOAM: The Open Source CFD Toolbox
   \\    /   O peration     | Website:  https://openfoam.org
    \\  /    A nd           | Version:  7
     \\/     M anipulation  |
\*---------------------------------------------------------------------------*/
Build  : 7-63349425784a
Exec   : rhoReactingFoam -parallel
Date   : Dec 02 2024
Time   : 14:27:43
Host   : "ps"
PID    : 740588
I/O    : uncollated
Case   : /home/xsj/lk/1126-1203/SandiaD_LTS_1
nProcs : 2
Slaves : 1("ps.740589")
Pstream initialized with:
    floatTransfer      : 0
    nProcsSimpleSum    : 0
    commsType          : nonBlocking
    polling iterations : 0
sigFpe : Enabling floating point exception trapping (FOAM_SIGFPE).
fileModificationChecking : Monitoring run-time modified files using timeStampMaster (fileModificationSkew 10)
allowSystemOperations : Allowing user-supplied system call operations

// * * * * * * * * * * * * * * * * * * * * * * * * * * * * * * * * * * * * * //
Create time

Create mesh for time = 0


PIMPLE: No convergence criteria found


PIMPLE: Operating solver in transient mode with 1 outer corrector
PIMPLE: Operating solver in PISO mode


Reading thermophysical properties

Selecting thermodynamics package 
{
    type            heRhoThermo;
    mixture         reactingMixture;
    transport       sutherland;
    thermo          janaf;
    energy          sensibleEnthalpy;
    equationOfState perfectGas;
    specie          specie;
}

Selecting chemistryReader foamChemistryReader
Reading field U

Reading/calculating face flux field phi

Creating turbulence model.

Selecting turbulence model type laminar
Selecting laminar stress model Stokes
Creating reaction model

Selecting combustion model laminar
Selecting chemistry solver 
{
    solver          ode;
    method          standard;
}

StandardChemistryModel: Number of species = 42 and reactions = 130
Selecting ODE solver seulex
    using integrated reaction rate
Creating field dpdt

Creating field kinetic energy K

No MRF models present

Creating finite volume options from "constant/fvOptions"

Selecting finite volume options model type radiation
    Source: radiation
Selecting radiationModel P1
Selecting absorptionEmissionModel greyMeanCombustion
Selecting scatterModel none
Selecting sootModel none
Selecting finite volume options model type fixedTemperatureConstraint
    Source: Constraint
    - selecting cells using points
    - selected 1 cell(s) with volume 5.39941036e-17
Courant Number mean: 0.0250990017 max: 0.55321049

Starting time loop

Courant Number mean: 0.02261171325 max: 0.4983878288
deltaT = 9.009009009e-05
Time = 9.009009009e-05

diagonal:  Solving for rho, Initial residual = 0, Final residual = 0, No Iterations 0
DILUPBiCGStab:  Solving for Ux, Initial residual = 1, Final residual = 0.00166326646, No Iterations 1
DILUPBiCGStab:  Solving for Uy, Initial residual = 0.9999999581, Final residual = 0.0001219369705, No Iterations 1
DILUPBiCGStab:  Solving for Uz, Initial residual = 1, Final residual = 0.0011523773, No Iterations 1
DILUPBiCGStab:  Solving for H2, Initial residual = 0.9999999974, Final residual = 0.0002842297785, No Iterations 1
DILUPBiCGStab:  Solving for H, Initial residual = 0.9999998832, Final residual = 0.000284229746, No Iterations 1
DILUPBiCGStab:  Solving for O, Initial residual = 0.9999999998, Final residual = 0.0002842297792, No Iterations 1
DILUPBiCGStab:  Solving for O2, Initial residual = 0.999999909, Final residual = 0.000303685658, No Iterations 1
DILUPBiCGStab:  Solving for OH, Initial residual = 1, Final residual = 0.0002842297793, No Iterations 1
DILUPBiCGStab:  Solving for H2O, Initial residual = 1, Final residual = 0.0002842297793, No Iterations 1
DILUPBiCGStab:  Solving for HO2, Initial residual = 0.9999999977, Final residual = 0.0002842297786, No Iterations 1
DILUPBiCGStab:  Solving for H2O2, Initial residual = 0.9999999593, Final residual = 0.0002842297677, No Iterations 1
DILUPBiCGStab:  Solving for C, Initial residual = 0.9994546752, Final residual = 0.0002840747817, No Iterations 1
DILUPBiCGStab:  Solving for CH, Initial residual = 0.0007195934272, Final residual = 2.04529881e-07, No Iterations 1
DILUPBiCGStab:  Solving for CH2, Initial residual = 2.037004144e-07, Final residual = 5.789772381e-11, No Iterations 1
DILUPBiCGStab:  Solving for CH2(S), Initial residual = 4.573583323e-09, Final residual = 4.573583323e-09, No Iterations 0
DILUPBiCGStab:  Solving for CH3, Initial residual = 3.162230719e-06, Final residual = 8.988001391e-10, No Iterations 1
DILUPBiCGStab:  Solving for CH4, Initial residual = 1, Final residual = 0.01319585954, No Iterations 1
DILUPBiCGStab:  Solving for CO, Initial residual = 0.9999999999, Final residual = 0.0002842297792, No Iterations 1
DILUPBiCGStab:  Solving for CO2, Initial residual = 1, Final residual = 0.0002842297793, No Iterations 1
DILUPBiCGStab:  Solving for HCO, Initial residual = 0.7015783536, Final residual = 0.0001994094606, No Iterations 1
DILUPBiCGStab:  Solving for CH2O, Initial residual = 0.2069553538, Final residual = 5.882287452e-05, No Iterations 1
DILUPBiCGStab:  Solving for CH2OH, Initial residual = 0.001655459055, Final residual = 4.705307617e-07, No Iterations 1
DILUPBiCGStab:  Solving for CH3O, Initial residual = 4.664389712e-09, Final residual = 4.664389712e-09, No Iterations 0
DILUPBiCGStab:  Solving for CH3OH, Initial residual = 4.66171194e-05, Final residual = 1.324997356e-08, No Iterations 1
DILUPBiCGStab:  Solving for C2H2, Initial residual = 0.7311827929, Final residual = 0.0002078239238, No Iterations 1
DILUPBiCGStab:  Solving for C2H3, Initial residual = 0.002844549859, Final residual = 8.085057784e-07, No Iterations 1
DILUPBiCGStab:  Solving for C2H4, Initial residual = 0.01086111801, Final residual = 3.087053174e-06, No Iterations 1
DILUPBiCGStab:  Solving for C2H5, Initial residual = 1.673522203e-09, Final residual = 1.673522203e-09, No Iterations 0
DILUPBiCGStab:  Solving for C2H6, Initial residual = 1.693385134e-10, Final residual = 1.693385134e-10, No Iterations 0
DILUPBiCGStab:  Solving for HCCO, Initial residual = 0.003644146637, Final residual = 1.035774994e-06, No Iterations 1
DILUPBiCGStab:  Solving for N, Initial residual = 0.994663505, Final residual = 0.0002827129884, No Iterations 1
DILUPBiCGStab:  Solving for NH, Initial residual = 0.980130356, Final residual = 0.0002785822347, No Iterations 1
DILUPBiCGStab:  Solving for NH2, Initial residual = 0.9693417325, Final residual = 0.0002755157867, No Iterations 1
DILUPBiCGStab:  Solving for NH3, Initial residual = 4.371353162e-233, Final residual = 4.371353162e-233, No Iterations 0
DILUPBiCGStab:  Solving for N2H2, Initial residual = 0.0009973897577, Final residual = 2.834878707e-07, No Iterations 1
DILUPBiCGStab:  Solving for NNH, Initial residual = 0.997603093, Final residual = 0.0002835485069, No Iterations 1
DILUPBiCGStab:  Solving for NO, Initial residual = 0.9999999994, Final residual = 0.0002842297791, No Iterations 1
DILUPBiCGStab:  Solving for NO2, Initial residual = 0.9999998375, Final residual = 0.0002842297331, No Iterations 1
DILUPBiCGStab:  Solving for N2O, Initial residual = 0.9999999914, Final residual = 0.0002842297768, No Iterations 1
DILUPBiCGStab:  Solving for HNO, Initial residual = 0.9990404767, Final residual = 0.0002839570542, No Iterations 1
DILUPBiCGStab:  Solving for HCN, Initial residual = 0.9289407472, Final residual = 0.0002640326235, No Iterations 1
DILUPBiCGStab:  Solving for N2H3, Initial residual = 1.95923348e-07, Final residual = 5.568724995e-11, No Iterations 1
DILUPBiCGStab:  Solving for CH2CHO, Initial residual = 0.9959053757, Final residual = 0.0002830659651, No Iterations 1
DILUPBiCGStab:  Solving for AR, Initial residual = 1.834792969e-44, Final residual = 1.834792969e-44, No Iterations 0
DICPCG:  Solving for G, Initial residual = 1, Final residual = 9.702888923e-06, No Iterations 263
DILUPBiCGStab:  Solving for h, Initial residual = 0.06380482625, Final residual = 2.651449445e-05, No Iterations 1
min/max(T) = 291, 2000
DICPCG:  Solving for p, Initial residual = 0.9999999919, Final residual = 0.008031153473, No Iterations 111
diagonal:  Solving for rho, Initial residual = 0, Final residual = 0, No Iterations 0
time step continuity errors : sum local = 1.696748735e-07, global = 1.566717967e-08, cumulative = 1.566717967e-08
DICPCG:  Solving for p, Initial residual = 0.00493172011, Final residual = 9.039892239e-07, No Iterations 127
diagonal:  Solving for rho, Initial residual = 0, Final residual = 0, No Iterations 0
time step continuity errors : sum local = 1.197400473e-09, global = 1.229173712e-11, cumulative = 1.567947141e-08
ExecutionTime = 13.47 s  ClockTime = 13 s

Courant Number mean: 0.02347749667 max: 4.357953576
deltaT = 1.033358698e-05
Time = 0.0001004236771

diagonal:  Solving for rho, Initial residual = 0, Final residual = 0, No Iterations 0
DILUPBiCGStab:  Solving for Ux, Initial residual = 0.007739831713, Final residual = 1.133499688e-06, No Iterations 1
DILUPBiCGStab:  Solving for Uy, Initial residual = 0.02363057571, Final residual = 2.655188984e-07, No Iterations 1
DILUPBiCGStab:  Solving for Uz, Initial residual = 0.003191957431, Final residual = 3.196717512e-07, No Iterations 1
DILUPBiCGStab:  Solving for H2, Initial residual = 0.004142002577, Final residual = 6.223368114e-08, No Iterations 1
DILUPBiCGStab:  Solving for H, Initial residual = 0.02652864912, Final residual = 3.857340555e-07, No Iterations 1
DILUPBiCGStab:  Solving for O, Initial residual = 0.005968298892, Final residual = 8.845985483e-08, No Iterations 1
DILUPBiCGStab:  Solving for O2, Initial residual = 0.001199106715, Final residual = 1.971431813e-08, No Iterations 1
DILUPBiCGStab:  Solving for OH, Initial residual = 0.003754035851, Final residual = 5.662254482e-08, No Iterations 1
DILUPBiCGStab:  Solving for H2O, Initial residual = 0.004142699157, Final residual = 6.224373002e-08, No Iterations 1
DILUPBiCGStab:  Solving for HO2, Initial residual = 0.02138520535, Final residual = 3.150500063e-07, No Iterations 1
DILUPBiCGStab:  Solving for H2O2, Initial residual = 0.6604330768, Final residual = 9.398353946e-06, No Iterations 1
DILUPBiCGStab:  Solving for C, Initial residual = 0.004142537181, Final residual = 6.224138706e-08, No Iterations 1
DILUPBiCGStab:  Solving for CH, Initial residual = 0.004168152596, Final residual = 6.060611672e-08, No Iterations 1
DILUPBiCGStab:  Solving for CH2, Initial residual = 1.395567069e-06, Final residual = 2.029297406e-11, No Iterations 1
DILUPBiCGStab:  Solving for CH2(S), Initial residual = 4.831510343e-09, Final residual = 4.831510343e-09, No Iterations 0
DILUPBiCGStab:  Solving for CH3, Initial residual = 1.708576967e-06, Final residual = 2.57760695e-11, No Iterations 1
DILUPBiCGStab:  Solving for CH4, Initial residual = 2.386681171e-06, Final residual = 2.550766593e-09, No Iterations 1
DILUPBiCGStab:  Solving for CO, Initial residual = 0.004136925186, Final residual = 6.216039906e-08, No Iterations 1
DILUPBiCGStab:  Solving for CO2, Initial residual = 0.004142546486, Final residual = 6.224152638e-08, No Iterations 1
DILUPBiCGStab:  Solving for HCO, Initial residual = 0.02648512863, Final residual = 3.851012553e-07, No Iterations 1
DILUPBiCGStab:  Solving for CH2O, Initial residual = 0.003929662624, Final residual = 5.919091307e-08, No Iterations 1
DILUPBiCGStab:  Solving for CH2OH, Initial residual = 0.001270397786, Final residual = 1.908765867e-08, No Iterations 1
DILUPBiCGStab:  Solving for CH3O, Initial residual = 1.303215081e-08, Final residual = 1.852156074e-13, No Iterations 1
DILUPBiCGStab:  Solving for CH3OH, Initial residual = 5.691799049e-05, Final residual = 8.514759147e-10, No Iterations 1
DILUPBiCGStab:  Solving for C2H2, Initial residual = 0.004136661342, Final residual = 6.215321246e-08, No Iterations 1
DILUPBiCGStab:  Solving for C2H3, Initial residual = 0.01126858512, Final residual = 1.638484122e-07, No Iterations 1
DILUPBiCGStab:  Solving for C2H4, Initial residual = 0.003087417677, Final residual = 4.638873642e-08, No Iterations 1
DILUPBiCGStab:  Solving for C2H5, Initial residual = 3.27103719e-09, Final residual = 3.27103719e-09, No Iterations 0
DILUPBiCGStab:  Solving for C2H6, Initial residual = 1.695404074e-10, Final residual = 1.695404074e-10, No Iterations 0
DILUPBiCGStab:  Solving for HCCO, Initial residual = 0.01290163002, Final residual = 1.875933467e-07, No Iterations 1
DILUPBiCGStab:  Solving for N, Initial residual = 0.002587597386, Final residual = 3.952217549e-08, No Iterations 1
DILUPBiCGStab:  Solving for NH, Initial residual = 0.008955599895, Final residual = 1.282143292e-07, No Iterations 1
DILUPBiCGStab:  Solving for NH2, Initial residual = 0.004002954772, Final residual = 6.022548137e-08, No Iterations 1
DILUPBiCGStab:  Solving for NH3, Initial residual = 0.009022593976, Final residual = 1.282433814e-07, No Iterations 1
DILUPBiCGStab:  Solving for N2H2, Initial residual = 0.0008707674077, Final residual = 1.308349312e-08, No Iterations 1
DILUPBiCGStab:  Solving for NNH, Initial residual = 0.0265284029, Final residual = 3.857304754e-07, No Iterations 1
DILUPBiCGStab:  Solving for NO, Initial residual = 0.004140035258, Final residual = 6.220527514e-08, No Iterations 1
DILUPBiCGStab:  Solving for NO2, Initial residual = 0.005174454648, Final residual = 7.70870825e-08, No Iterations 1
DILUPBiCGStab:  Solving for N2O, Initial residual = 0.004142545668, Final residual = 6.224171369e-08, No Iterations 1
DILUPBiCGStab:  Solving for HNO, Initial residual = 0.004472719812, Final residual = 6.699863548e-08, No Iterations 1
DILUPBiCGStab:  Solving for HCN, Initial residual = 0.004141358006, Final residual = 6.222367004e-08, No Iterations 1
DILUPBiCGStab:  Solving for N2H3, Initial residual = 2.164792523e-07, Final residual = 3.25259225e-12, No Iterations 1
DILUPBiCGStab:  Solving for CH2CHO, Initial residual = 0.004142672545, Final residual = 6.224335668e-08, No Iterations 1
DILUPBiCGStab:  Solving for AR, Initial residual = 1.836980502e-44, Final residual = 1.836980502e-44, No Iterations 0
DICPCG:  Solving for G, Initial residual = 0.006506485803, Final residual = 9.261496316e-06, No Iterations 201
DILUPBiCGStab:  Solving for h, Initial residual = 0.001774589288, Final residual = 4.451405235e-08, No Iterations 1
min/max(T) = 291, 2000
DICPCG:  Solving for p, Initial residual = 0.004047314922, Final residual = 3.957874226e-05, No Iterations 20
diagonal:  Solving for rho, Initial residual = 0, Final residual = 0, No Iterations 0
time step continuity errors : sum local = 2.840903085e-08, global = 2.623509215e-10, cumulative = 1.594182233e-08
DICPCG:  Solving for p, Initial residual = 4.51437212e-05, Final residual = 7.989585969e-07, No Iterations 16
diagonal:  Solving for rho, Initial residual = 0, Final residual = 0, No Iterations 0
time step continuity errors : sum local = 6.647365399e-10, global = 3.431961787e-11, cumulative = 1.597614194e-08
ExecutionTime = 18.28 s  ClockTime = 18 s

Courant Number mean: 0.002707324026 max: 0.5714896378
deltaT = 9.040708971e-06
Time = 0.000109464386

diagonal:  Solving for rho, Initial residual = 0, Final residual = 0, No Iterations 0
DILUPBiCGStab:  Solving for Ux, Initial residual = 0.006851952027, Final residual = 9.762305707e-07, No Iterations 1
DILUPBiCGStab:  Solving for Uy, Initial residual = 0.01754232977, Final residual = 1.779609746e-07, No Iterations 1
DILUPBiCGStab:  Solving for Uz, Initial residual = 0.002661615472, Final residual = 2.657173884e-07, No Iterations 1
DILUPBiCGStab:  Solving for H2, Initial residual = 0.003221895897, Final residual = 3.835610647e-08, No Iterations 1
DILUPBiCGStab:  Solving for H, Initial residual = 0.002602789084, Final residual = 2.957320497e-08, No Iterations 1
DILUPBiCGStab:  Solving for O, Initial residual = 0.004642616552, Final residual = 5.446613718e-08, No Iterations 1
DILUPBiCGStab:  Solving for O2, Initial residual = 0.000939167346, Final residual = 1.229793589e-08, No Iterations 1
DILUPBiCGStab:  Solving for OH, Initial residual = 0.002899358262, Final residual = 3.466661707e-08, No Iterations 1
DILUPBiCGStab:  Solving for H2O, Initial residual = 0.003222543643, Final residual = 3.836348843e-08, No Iterations 1
DILUPBiCGStab:  Solving for HO2, Initial residual = 0.003061006573, Final residual = 3.656466842e-08, No Iterations 1
DILUPBiCGStab:  Solving for H2O2, Initial residual = 0.02912663628, Final residual = 3.2934517e-07, No Iterations 1
DILUPBiCGStab:  Solving for C, Initial residual = 0.003222410287, Final residual = 3.836196454e-08, No Iterations 1
DILUPBiCGStab:  Solving for CH, Initial residual = 9.003665492e-05, Final residual = 1.019211132e-09, No Iterations 1
DILUPBiCGStab:  Solving for CH2, Initial residual = 2.498188824e-08, Final residual = 2.828654487e-13, No Iterations 1
DILUPBiCGStab:  Solving for CH2(S), Initial residual = 4.883050678e-09, Final residual = 4.883050678e-09, No Iterations 0
DILUPBiCGStab:  Solving for CH3, Initial residual = 1.800860823e-06, Final residual = 2.146027948e-11, No Iterations 1
DILUPBiCGStab:  Solving for CH4, Initial residual = 1.863512882e-06, Final residual = 1.687024716e-09, No Iterations 1
DILUPBiCGStab:  Solving for CO, Initial residual = 0.003217581604, Final residual = 3.830689476e-08, No Iterations 1
DILUPBiCGStab:  Solving for CO2, Initial residual = 0.003222416073, Final residual = 3.836203306e-08, No Iterations 1
DILUPBiCGStab:  Solving for HCO, Initial residual = 0.003272096761, Final residual = 3.704252419e-08, No Iterations 1
DILUPBiCGStab:  Solving for CH2O, Initial residual = 0.002858299626, Final residual = 3.418368507e-08, No Iterations 1
DILUPBiCGStab:  Solving for CH2OH, Initial residual = 0.001176385817, Final residual = 1.400457072e-08, No Iterations 1
DILUPBiCGStab:  Solving for CH3O, Initial residual = 1.279105619e-08, Final residual = 1.446557636e-13, No Iterations 1
DILUPBiCGStab:  Solving for CH3OH, Initial residual = 5.748619752e-05, Final residual = 6.815426258e-10, No Iterations 1
DILUPBiCGStab:  Solving for C2H2, Initial residual = 0.003218820804, Final residual = 3.831932522e-08, No Iterations 1
DILUPBiCGStab:  Solving for C2H3, Initial residual = 0.0003301925827, Final residual = 3.737766093e-09, No Iterations 1
DILUPBiCGStab:  Solving for C2H4, Initial residual = 0.00255131088, Final residual = 3.037309128e-08, No Iterations 1
DILUPBiCGStab:  Solving for C2H5, Initial residual = 2.230635102e-09, Final residual = 2.230635102e-09, No Iterations 0
DILUPBiCGStab:  Solving for C2H6, Initial residual = 1.695609958e-10, Final residual = 1.695609958e-10, No Iterations 0
DILUPBiCGStab:  Solving for HCCO, Initial residual = 0.0004118100817, Final residual = 4.661672736e-09, No Iterations 1
DILUPBiCGStab:  Solving for N, Initial residual = 0.00186655403, Final residual = 2.261877285e-08, No Iterations 1
DILUPBiCGStab:  Solving for NH, Initial residual = 0.006785965044, Final residual = 7.741568765e-08, No Iterations 1
DILUPBiCGStab:  Solving for NH2, Initial residual = 0.003094648608, Final residual = 3.690360866e-08, No Iterations 1
DILUPBiCGStab:  Solving for NH3, Initial residual = 0.008556226452, Final residual = 9.650225406e-08, No Iterations 1
DILUPBiCGStab:  Solving for N2H2, Initial residual = 0.0008281084167, Final residual = 9.858678405e-09, No Iterations 1
DILUPBiCGStab:  Solving for NNH, Initial residual = 0.003324250496, Final residual = 3.763042369e-08, No Iterations 1
DILUPBiCGStab:  Solving for NO, Initial residual = 0.003220216609, Final residual = 3.833693822e-08, No Iterations 1
DILUPBiCGStab:  Solving for NO2, Initial residual = 0.004099078997, Final residual = 4.832053113e-08, No Iterations 1
DILUPBiCGStab:  Solving for N2O, Initial residual = 0.0032220405, Final residual = 3.835770938e-08, No Iterations 1
DILUPBiCGStab:  Solving for HNO, Initial residual = 0.003167153265, Final residual = 3.773290082e-08, No Iterations 1
DILUPBiCGStab:  Solving for HCN, Initial residual = 0.003221704575, Final residual = 3.835356323e-08, No Iterations 1
DILUPBiCGStab:  Solving for N2H3, Initial residual = 2.188889326e-07, Final residual = 2.605819817e-12, No Iterations 1
DILUPBiCGStab:  Solving for CH2CHO, Initial residual = 0.003222381809, Final residual = 3.83616245e-08, No Iterations 1
DILUPBiCGStab:  Solving for AR, Initial residual = 1.837203579e-44, Final residual = 1.837203579e-44, No Iterations 0
DICPCG:  Solving for G, Initial residual = 0.01244018245, Final residual = 9.820503146e-06, No Iterations 112
DILUPBiCGStab:  Solving for h, Initial residual = 0.001262811482, Final residual = 2.876003364e-08, No Iterations 1
min/max(T) = 291, 2000
DICPCG:  Solving for p, Initial residual = 0.003247702401, Final residual = 2.775202481e-05, No Iterations 18
diagonal:  Solving for rho, Initial residual = 0, Final residual = 0, No Iterations 0
time step continuity errors : sum local = 2.309440818e-08, global = 8.384862042e-10, cumulative = 1.681462815e-08
DICPCG:  Solving for p, Initial residual = 2.983377081e-05, Final residual = 8.045767099e-07, No Iterations 15
diagonal:  Solving for rho, Initial residual = 0, Final residual = 0, No Iterations 0
time step continuity errors : sum local = 7.552870551e-10, global = 8.273708928e-12, cumulative = 1.682290186e-08
ExecutionTime = 23.77 s  ClockTime = 23 s

Courant Number mean: 0.002381399293 max: 0.3201783205
deltaT = 1.04440714e-05
Time = 0.0001199084574

diagonal:  Solving for rho, Initial residual = 0, Final residual = 0, No Iterations 0
DILUPBiCGStab:  Solving for Ux, Initial residual = 0.008060078442, Final residual = 1.404636394e-06, No Iterations 1
DILUPBiCGStab:  Solving for Uy, Initial residual = 0.01763820355, Final residual = 2.068220582e-07, No Iterations 1
DILUPBiCGStab:  Solving for Uz, Initial residual = 0.002878606058, Final residual = 3.904771401e-07, No Iterations 1
DILUPBiCGStab:  Solving for H2, Initial residual = 0.003392897523, Final residual = 5.588211146e-08, No Iterations 1
DILUPBiCGStab:  Solving for H, Initial residual = 0.005445050452, Final residual = 8.455862719e-08, No Iterations 1
DILUPBiCGStab:  Solving for O, Initial residual = 0.004870076377, Final residual = 7.910011219e-08, No Iterations 1
DILUPBiCGStab:  Solving for O2, Initial residual = 0.000994929563, Final residual = 1.79544412e-08, No Iterations 1
DILUPBiCGStab:  Solving for OH, Initial residual = 0.003034760582, Final residual = 5.019482337e-08, No Iterations 1
DILUPBiCGStab:  Solving for H2O, Initial residual = 0.003393694617, Final residual = 5.589470788e-08, No Iterations 1
DILUPBiCGStab:  Solving for HO2, Initial residual = 0.003580230983, Final residual = 5.881175794e-08, No Iterations 1
DILUPBiCGStab:  Solving for H2O2, Initial residual = 0.01892649081, Final residual = 2.976983139e-07, No Iterations 1
DILUPBiCGStab:  Solving for C, Initial residual = 0.003393545807, Final residual = 5.589234914e-08, No Iterations 1
DILUPBiCGStab:  Solving for CH, Initial residual = 0.0001039300678, Final residual = 1.615298422e-09, No Iterations 1
DILUPBiCGStab:  Solving for CH2, Initial residual = 2.987838581e-08, Final residual = 4.645676101e-13, No Iterations 1
DILUPBiCGStab:  Solving for CH2(S), Initial residual = 4.834476341e-09, Final residual = 4.834476341e-09, No Iterations 0
DILUPBiCGStab:  Solving for CH3, Initial residual = 1.662538348e-06, Final residual = 2.71976532e-11, No Iterations 1
DILUPBiCGStab:  Solving for CH4, Initial residual = 1.96645793e-06, Final residual = 2.383078525e-09, No Iterations 1
DILUPBiCGStab:  Solving for CO, Initial residual = 0.003388010249, Final residual = 5.580477891e-08, No Iterations 1
DILUPBiCGStab:  Solving for CO2, Initial residual = 0.003393552191, Final residual = 5.589245376e-08, No Iterations 1
DILUPBiCGStab:  Solving for HCO, Initial residual = 0.004879838212, Final residual = 7.584102811e-08, No Iterations 1
DILUPBiCGStab:  Solving for CH2O, Initial residual = 0.002969467535, Final residual = 4.913881785e-08, No Iterations 1
DILUPBiCGStab:  Solving for CH2OH, Initial residual = 0.001206550191, Final residual = 1.987211385e-08, No Iterations 1
DILUPBiCGStab:  Solving for CH3O, Initial residual = 1.295235547e-08, Final residual = 2.040234419e-13, No Iterations 1
DILUPBiCGStab:  Solving for CH3OH, Initial residual = 5.796053102e-05, Final residual = 9.51451214e-10, No Iterations 1
DILUPBiCGStab:  Solving for C2H2, Initial residual = 0.003389567232, Final residual = 5.582698125e-08, No Iterations 1
DILUPBiCGStab:  Solving for C2H3, Initial residual = 0.000387529273, Final residual = 6.023044499e-09, No Iterations 1
DILUPBiCGStab:  Solving for C2H4, Initial residual = 0.002663268802, Final residual = 4.386518618e-08, No Iterations 1
DILUPBiCGStab:  Solving for C2H5, Initial residual = 2.472502989e-09, Final residual = 2.472502989e-09, No Iterations 0
DILUPBiCGStab:  Solving for C2H6, Initial residual = 1.695707781e-10, Final residual = 1.695707781e-10, No Iterations 0
DILUPBiCGStab:  Solving for HCCO, Initial residual = 0.0004874633494, Final residual = 7.576051383e-09, No Iterations 1
DILUPBiCGStab:  Solving for N, Initial residual = 0.00183285883, Final residual = 3.058793998e-08, No Iterations 1
DILUPBiCGStab:  Solving for NH, Initial residual = 0.005659218768, Final residual = 9.002136445e-08, No Iterations 1
DILUPBiCGStab:  Solving for NH2, Initial residual = 0.003237658297, Final residual = 5.342369802e-08, No Iterations 1
DILUPBiCGStab:  Solving for NH3, Initial residual = 0.008511225362, Final residual = 1.333372536e-07, No Iterations 1
DILUPBiCGStab:  Solving for N2H2, Initial residual = 0.0008454463391, Final residual = 1.39250846e-08, No Iterations 1
DILUPBiCGStab:  Solving for NNH, Initial residual = 0.004932394949, Final residual = 7.66600613e-08, No Iterations 1
DILUPBiCGStab:  Solving for NO, Initial residual = 0.00339096646, Final residual = 5.585152967e-08, No Iterations 1
DILUPBiCGStab:  Solving for NO2, Initial residual = 0.004396479261, Final residual = 7.167871555e-08, No Iterations 1
DILUPBiCGStab:  Solving for N2O, Initial residual = 0.003393065623, Final residual = 5.588459748e-08, No Iterations 1
DILUPBiCGStab:  Solving for HNO, Initial residual = 0.003335969831, Final residual = 5.498124362e-08, No Iterations 1
DILUPBiCGStab:  Solving for HCN, Initial residual = 0.003392771267, Final residual = 5.587959236e-08, No Iterations 1
DILUPBiCGStab:  Solving for N2H3, Initial residual = 2.211841366e-07, Final residual = 3.642950097e-12, No Iterations 1
DILUPBiCGStab:  Solving for CH2CHO, Initial residual = 0.003393508509, Final residual = 5.589173665e-08, No Iterations 1
DILUPBiCGStab:  Solving for AR, Initial residual = 1.83730957e-44, Final residual = 1.83730957e-44, No Iterations 0
DICPCG:  Solving for G, Initial residual = 0.01473881943, Final residual = 9.355560879e-06, No Iterations 189
DILUPBiCGStab:  Solving for h, Initial residual = 0.001311013373, Final residual = 4.102348985e-08, No Iterations 1
min/max(T) = 291, 2000
DICPCG:  Solving for p, Initial residual = 0.003332771831, Final residual = 2.899102716e-05, No Iterations 21
diagonal:  Solving for rho, Initial residual = 0, Final residual = 0, No Iterations 0
time step continuity errors : sum local = 2.737613277e-08, global = -3.798902156e-10, cumulative = 1.644301164e-08
DICPCG:  Solving for p, Initial residual = 3.087368754e-05, Final residual = 8.566050077e-07, No Iterations 16
diagonal:  Solving for rho, Initial residual = 0, Final residual = 0, No Iterations 0
time step continuity errors : sum local = 9.189210045e-10, global = -8.848005153e-11, cumulative = 1.635453159e-08
ExecutionTime = 29.17 s  ClockTime = 29 s

Courant Number mean: 0.002770448346 max: 0.2699324526
deltaT = 1.236557139e-05
Time = 0.0001322740288

diagonal:  Solving for rho, Initial residual = 0, Final residual = 0, No Iterations 0
DILUPBiCGStab:  Solving for Ux, Initial residual = 0.009729744083, Final residual = 2.10045129e-06, No Iterations 1
DILUPBiCGStab:  Solving for Uy, Initial residual = 0.01826352487, Final residual = 2.912253047e-07, No Iterations 1
DILUPBiCGStab:  Solving for Uz, Initial residual = 0.003091863113, Final residual = 6.124638966e-07, No Iterations 1
DILUPBiCGStab:  Solving for H2, Initial residual = 0.003640308964, Final residual = 8.678339643e-08, No Iterations 1
DILUPBiCGStab:  Solving for H, Initial residual = 0.0065216644, Final residual = 1.466132214e-07, No Iterations 1
DILUPBiCGStab:  Solving for O, Initial residual = 0.005182545088, Final residual = 1.220411455e-07, No Iterations 1
DILUPBiCGStab:  Solving for O2, Initial residual = 0.001074550125, Final residual = 2.793327974e-08, No Iterations 1
DILUPBiCGStab:  Solving for OH, Initial residual = 0.00323105867, Final residual = 7.731711386e-08, No Iterations 1
DILUPBiCGStab:  Solving for H2O, Initial residual = 0.003641336843, Final residual = 8.680702435e-08, No Iterations 1
DILUPBiCGStab:  Solving for HO2, Initial residual = 0.005204796518, Final residual = 1.222143951e-07, No Iterations 1
DILUPBiCGStab:  Solving for H2O2, Initial residual = 0.01519996374, Final residual = 3.484672233e-07, No Iterations 1
DILUPBiCGStab:  Solving for C, Initial residual = 0.003641165452, Final residual = 8.680307162e-08, No Iterations 1
DILUPBiCGStab:  Solving for CH, Initial residual = 0.0001200888072, Final residual = 2.702706876e-09, No Iterations 1
DILUPBiCGStab:  Solving for CH2, Initial residual = 3.46033372e-08, Final residual = 7.791408416e-13, No Iterations 1
DILUPBiCGStab:  Solving for CH2(S), Initial residual = 4.781915187e-09, Final residual = 4.781915187e-09, No Iterations 0
DILUPBiCGStab:  Solving for CH3, Initial residual = 1.43433497e-06, Final residual = 3.369864036e-11, No Iterations 1
DILUPBiCGStab:  Solving for CH4, Initial residual = 2.115127029e-06, Final residual = 3.548816075e-09, No Iterations 1
DILUPBiCGStab:  Solving for CO, Initial residual = 0.003634609354, Final residual = 8.665215184e-08, No Iterations 1
DILUPBiCGStab:  Solving for CO2, Initial residual = 0.00364117276, Final residual = 8.680324503e-08, No Iterations 1
DILUPBiCGStab:  Solving for HCO, Initial residual = 0.00570170593, Final residual = 1.283161971e-07, No Iterations 1
DILUPBiCGStab:  Solving for CH2O, Initial residual = 0.00313989882, Final residual = 7.518201174e-08, No Iterations 1
DILUPBiCGStab:  Solving for CH2OH, Initial residual = 0.001245342324, Final residual = 2.968817322e-08, No Iterations 1
DILUPBiCGStab:  Solving for CH3O, Initial residual = 1.345943353e-08, Final residual = 3.092463818e-13, No Iterations 1
DILUPBiCGStab:  Solving for CH3OH, Initial residual = 5.837890338e-05, Final residual = 1.38846019e-09, No Iterations 1
DILUPBiCGStab:  Solving for C2H2, Initial residual = 0.003636577308, Final residual = 8.669397634e-08, No Iterations 1
DILUPBiCGStab:  Solving for C2H3, Initial residual = 0.0004480384704, Final residual = 1.008350972e-08, No Iterations 1
DILUPBiCGStab:  Solving for C2H4, Initial residual = 0.002820161103, Final residual = 6.723190465e-08, No Iterations 1
DILUPBiCGStab:  Solving for C2H5, Initial residual = 3.088147653e-09, Final residual = 3.088147653e-09, No Iterations 0
DILUPBiCGStab:  Solving for C2H6, Initial residual = 1.695706661e-10, Final residual = 1.695706661e-10, No Iterations 0
DILUPBiCGStab:  Solving for HCCO, Initial residual = 0.0005641234457, Final residual = 1.269572422e-08, No Iterations 1
DILUPBiCGStab:  Solving for N, Initial residual = 0.001788942599, Final residual = 4.265087975e-08, No Iterations 1
DILUPBiCGStab:  Solving for NH, Initial residual = 0.003826782463, Final residual = 8.928716803e-08, No Iterations 1
DILUPBiCGStab:  Solving for NH2, Initial residual = 0.003443510026, Final residual = 8.224697891e-08, No Iterations 1
DILUPBiCGStab:  Solving for NH3, Initial residual = 0.008772218744, Final residual = 1.999152148e-07, No Iterations 1
DILUPBiCGStab:  Solving for N2H2, Initial residual = 0.0008669869477, Final residual = 2.06690992e-08, No Iterations 1
DILUPBiCGStab:  Solving for NNH, Initial residual = 0.005755733755, Final residual = 1.295378584e-07, No Iterations 1
DILUPBiCGStab:  Solving for NO, Initial residual = 0.003638003404, Final residual = 8.673025437e-08, No Iterations 1
DILUPBiCGStab:  Solving for NO2, Initial residual = 0.004832598857, Final residual = 1.140535488e-07, No Iterations 1
DILUPBiCGStab:  Solving for N2O, Initial residual = 0.003640619273, Final residual = 8.67902235e-08, No Iterations 1
DILUPBiCGStab:  Solving for HNO, Initial residual = 0.003643122258, Final residual = 8.683903322e-08, No Iterations 1
DILUPBiCGStab:  Solving for HCN, Initial residual = 0.003640283399, Final residual = 8.678204409e-08, No Iterations 1
DILUPBiCGStab:  Solving for N2H3, Initial residual = 2.236019177e-07, Final residual = 5.33053528e-12, No Iterations 1
DILUPBiCGStab:  Solving for CH2CHO, Initial residual = 0.003641122679, Final residual = 8.68020548e-08, No Iterations 1
DILUPBiCGStab:  Solving for AR, Initial residual = 1.837308357e-44, Final residual = 1.837308357e-44, No Iterations 0
DICPCG:  Solving for G, Initial residual = 0.01732857252, Final residual = 9.948134106e-06, No Iterations 190
DILUPBiCGStab:  Solving for h, Initial residual = 0.001420239683, Final residual = 6.362092959e-08, No Iterations 1
min/max(T) = 291, 2000
DICPCG:  Solving for p, Initial residual = 0.003553079933, Final residual = 2.846568649e-05, No Iterations 24
diagonal:  Solving for rho, Initial residual = 0, Final residual = 0, No Iterations 0
time step continuity errors : sum local = 3.071075759e-08, global = -1.311534382e-09, cumulative = 1.504299721e-08
DICPCG:  Solving for p, Initial residual = 3.205198784e-05, Final residual = 7.470153284e-07, No Iterations 18
diagonal:  Solving for rho, Initial residual = 0, Final residual = 0, No Iterations 0
time step continuity errors : sum local = 9.197146739e-10, global = -7.415201097e-11, cumulative = 1.49688452e-08
ExecutionTime = 34.78 s  ClockTime = 34 s

Courant Number mean: 0.003310700974 max: 0.3513361473
deltaT = 1.411691841e-05
Time = 0.0001463909472

diagonal:  Solving for rho, Initial residual = 0, Final residual = 0, No Iterations 0
DILUPBiCGStab:  Solving for Ux, Initial residual = 0.01126890885, Final residual = 2.858215451e-06, No Iterations 1
DILUPBiCGStab:  Solving for Uy, Initial residual = 0.01672818989, Final residual = 3.472621119e-07, No Iterations 1
DILUPBiCGStab:  Solving for Uz, Initial residual = 0.003159267409, Final residual = 9.075417991e-07, No Iterations 1
DILUPBiCGStab:  Solving for H2, Initial residual = 0.003735669002, Final residual = 1.194943452e-07, No Iterations 1
DILUPBiCGStab:  Solving for H, Initial residual = 0.005942783884, Final residual = 1.792319609e-07, No Iterations 1
DILUPBiCGStab:  Solving for O, Initial residual = 0.005218107616, Final residual = 1.653161506e-07, No Iterations 1
DILUPBiCGStab:  Solving for O2, Initial residual = 0.001110808839, Final residual = 3.85958138e-08, No Iterations 1
DILUPBiCGStab:  Solving for OH, Initial residual = 0.003281308162, Final residual = 1.052731099e-07, No Iterations 1
DILUPBiCGStab:  Solving for H2O, Initial residual = 0.003736981716, Final residual = 1.19535114e-07, No Iterations 1
DILUPBiCGStab:  Solving for HO2, Initial residual = 0.007906601872, Final residual = 2.45917266e-07, No Iterations 1
DILUPBiCGStab:  Solving for H2O2, Initial residual = 0.01273121298, Final residual = 3.946561345e-07, No Iterations 1
DILUPBiCGStab:  Solving for C, Initial residual = 0.00373678972, Final residual = 1.195291308e-07, No Iterations 1
DILUPBiCGStab:  Solving for CH, Initial residual = 9.960091277e-05, Final residual = 3.010691736e-09, No Iterations 1
DILUPBiCGStab:  Solving for CH2, Initial residual = 2.853142582e-08, Final residual = 8.629278408e-13, No Iterations 1
DILUPBiCGStab:  Solving for CH2(S), Initial residual = 4.745341776e-09, Final residual = 4.745341776e-09, No Iterations 0
DILUPBiCGStab:  Solving for CH3, Initial residual = 1.166707737e-06, Final residual = 3.650850162e-11, No Iterations 1
DILUPBiCGStab:  Solving for CH4, Initial residual = 2.1773449e-06, Final residual = 4.731808854e-09, No Iterations 1
DILUPBiCGStab:  Solving for CO, Initial residual = 0.003729236361, Final residual = 1.192941215e-07, No Iterations 1
DILUPBiCGStab:  Solving for CO2, Initial residual = 0.003736797436, Final residual = 1.195293766e-07, No Iterations 1
DILUPBiCGStab:  Solving for HCO, Initial residual = 0.004535499788, Final residual = 1.370808494e-07, No Iterations 1
DILUPBiCGStab:  Solving for CH2O, Initial residual = 0.003164602234, Final residual = 1.015898907e-07, No Iterations 1
DILUPBiCGStab:  Solving for CH2OH, Initial residual = 0.001265998917, Final residual = 4.049566354e-08, No Iterations 1
DILUPBiCGStab:  Solving for CH3O, Initial residual = 1.485780572e-08, Final residual = 4.610156135e-13, No Iterations 1
DILUPBiCGStab:  Solving for CH3OH, Initial residual = 5.876702627e-05, Final residual = 1.877199787e-09, No Iterations 1
DILUPBiCGStab:  Solving for C2H2, Initial residual = 0.003731906972, Final residual = 1.193733691e-07, No Iterations 1
DILUPBiCGStab:  Solving for C2H3, Initial residual = 0.0003704925955, Final residual = 1.119908407e-08, No Iterations 1
DILUPBiCGStab:  Solving for C2H4, Initial residual = 0.002884474228, Final residual = 9.226749607e-08, No Iterations 1
DILUPBiCGStab:  Solving for C2H5, Initial residual = 4.527550765e-09, Final residual = 4.527550765e-09, No Iterations 0
DILUPBiCGStab:  Solving for C2H6, Initial residual = 1.695652415e-10, Final residual = 1.695652415e-10, No Iterations 0
DILUPBiCGStab:  Solving for HCCO, Initial residual = 0.0004664611167, Final residual = 1.409948048e-08, No Iterations 1
DILUPBiCGStab:  Solving for N, Initial residual = 0.001596122588, Final residual = 4.931440889e-08, No Iterations 1
DILUPBiCGStab:  Solving for NH, Initial residual = 0.0016808633, Final residual = 5.385463395e-08, No Iterations 1
DILUPBiCGStab:  Solving for NH2, Initial residual = 0.003492582492, Final residual = 1.119166799e-07, No Iterations 1
DILUPBiCGStab:  Solving for NH3, Initial residual = 0.009030788586, Final residual = 2.776170531e-07, No Iterations 1
DILUPBiCGStab:  Solving for N2H2, Initial residual = 0.0008797753769, Final residual = 2.814243009e-08, No Iterations 1
DILUPBiCGStab:  Solving for NNH, Initial residual = 0.004541266659, Final residual = 1.372710242e-07, No Iterations 1
DILUPBiCGStab:  Solving for NO, Initial residual = 0.003732968509, Final residual = 1.194102031e-07, No Iterations 1
DILUPBiCGStab:  Solving for NO2, Initial residual = 0.005123412766, Final residual = 1.623133078e-07, No Iterations 1
DILUPBiCGStab:  Solving for N2O, Initial residual = 0.00373622832, Final residual = 1.195113522e-07, No Iterations 1
DILUPBiCGStab:  Solving for HNO, Initial residual = 0.003923160901, Final residual = 1.252698732e-07, No Iterations 1
DILUPBiCGStab:  Solving for HCN, Initial residual = 0.003735871386, Final residual = 1.19499756e-07, No Iterations 1
DILUPBiCGStab:  Solving for N2H3, Initial residual = 2.261997946e-07, Final residual = 7.235490332e-12, No Iterations 1
DILUPBiCGStab:  Solving for CH2CHO, Initial residual = 0.003736745938, Final residual = 1.195277331e-07, No Iterations 1
DILUPBiCGStab:  Solving for AR, Initial residual = 1.837249581e-44, Final residual = 1.837249581e-44, No Iterations 0
DICPCG:  Solving for G, Initial residual = 0.01947633528, Final residual = 9.911055941e-06, No Iterations 191
DILUPBiCGStab:  Solving for h, Initial residual = 0.001492468143, Final residual = 8.990846729e-08, No Iterations 1
min/max(T) = 291, 2000
DICPCG:  Solving for p, Initial residual = 0.003734719249, Final residual = 3.077249942e-05, No Iterations 25
diagonal:  Solving for rho, Initial residual = 0, Final residual = 0, No Iterations 0
time step continuity errors : sum local = 3.806060725e-08, global = 6.34026995e-10, cumulative = 1.560287219e-08
DICPCG:  Solving for p, Initial residual = 3.231945252e-05, Final residual = 7.559781825e-07, No Iterations 19
diagonal:  Solving for rho, Initial residual = 0, Final residual = 0, No Iterations 0
time step continuity errors : sum local = 1.053141003e-09, global = -6.294465105e-12, cumulative = 1.559657773e-08
ExecutionTime = 40.21 s  ClockTime = 40 s

Courant Number mean: 0.003823186153 max: 0.4370597896
deltaT = 1.571548493e-05
Time = 0.0001621064322

diagonal:  Solving for rho, Initial residual = 0, Final residual = 0, No Iterations 0
DILUPBiCGStab:  Solving for Ux, Initial residual = 0.01258056802, Final residual = 3.750740373e-06, No Iterations 1
DILUPBiCGStab:  Solving for Uy, Initial residual = 0.0159218666, Final residual = 3.694985819e-07, No Iterations 1
DILUPBiCGStab:  Solving for Uz, Initial residual = 0.003161149572, Final residual = 1.219811158e-06, No Iterations 1
DILUPBiCGStab:  Solving for H2, Initial residual = 0.003725512024, Final residual = 1.52310663e-07, No Iterations 1
DILUPBiCGStab:  Solving for H, Initial residual = 0.006271060645, Final residual = 2.418308042e-07, No Iterations 1
DILUPBiCGStab:  Solving for O, Initial residual = 0.004975587258, Final residual = 2.022890218e-07, No Iterations 1
DILUPBiCGStab:  Solving for O2, Initial residual = 0.001116532856, Final residual = 4.941615094e-08, No Iterations 1
DILUPBiCGStab:  Solving for OH, Initial residual = 0.003227373072, Final residual = 1.321683822e-07, No Iterations 1
DILUPBiCGStab:  Solving for H2O, Initial residual = 0.003727182159, Final residual = 1.523775699e-07, No Iterations 1
DILUPBiCGStab:  Solving for HO2, Initial residual = 0.01178058158, Final residual = 4.64210425e-07, No Iterations 1
DILUPBiCGStab:  Solving for H2O2, Initial residual = 0.01091491006, Final residual = 4.360643968e-07, No Iterations 1
DILUPBiCGStab:  Solving for C, Initial residual = 0.003726969362, Final residual = 1.523690173e-07, No Iterations 1
DILUPBiCGStab:  Solving for CH, Initial residual = 8.535527967e-05, Final residual = 3.304232181e-09, No Iterations 1
DILUPBiCGStab:  Solving for CH2, Initial residual = 2.461137411e-08, Final residual = 9.532004416e-13, No Iterations 1
DILUPBiCGStab:  Solving for CH2(S), Initial residual = 4.718165889e-09, Final residual = 4.718165889e-09, No Iterations 0
DILUPBiCGStab:  Solving for CH3, Initial residual = 8.802647686e-07, Final residual = 3.493773728e-11, No Iterations 1
DILUPBiCGStab:  Solving for CH4, Initial residual = 2.178465247e-06, Final residual = 5.868215243e-09, No Iterations 1
DILUPBiCGStab:  Solving for CO, Initial residual = 0.003718431925, Final residual = 1.520262868e-07, No Iterations 1
DILUPBiCGStab:  Solving for CO2, Initial residual = 0.003726977105, Final residual = 1.523693329e-07, No Iterations 1
DILUPBiCGStab:  Solving for HCO, Initial residual = 0.0038019701, Final residual = 1.471370352e-07, No Iterations 1
DILUPBiCGStab:  Solving for CH2O, Initial residual = 0.003086899243, Final residual = 1.264494675e-07, No Iterations 1
DILUPBiCGStab:  Solving for CH2OH, Initial residual = 0.001275451106, Final residual = 5.214405366e-08, No Iterations 1
DILUPBiCGStab:  Solving for CH3O, Initial residual = 1.814288044e-08, Final residual = 7.221045002e-13, No Iterations 1
DILUPBiCGStab:  Solving for CH3OH, Initial residual = 5.918606943e-05, Final residual = 2.41837896e-09, No Iterations 1
DILUPBiCGStab:  Solving for C2H2, Initial residual = 0.003722010405, Final residual = 1.521667878e-07, No Iterations 1
DILUPBiCGStab:  Solving for C2H3, Initial residual = 0.000316719283, Final residual = 1.226066943e-08, No Iterations 1
DILUPBiCGStab:  Solving for C2H4, Initial residual = 0.002886373053, Final residual = 1.180047414e-07, No Iterations 1
DILUPBiCGStab:  Solving for C2H5, Initial residual = 7.947864326e-09, Final residual = 7.947864326e-09, No Iterations 0
DILUPBiCGStab:  Solving for C2H6, Initial residual = 1.695558101e-10, Final residual = 1.695558101e-10, No Iterations 0
DILUPBiCGStab:  Solving for HCCO, Initial residual = 0.0003991282725, Final residual = 1.545010672e-08, No Iterations 1
DILUPBiCGStab:  Solving for N, Initial residual = 0.001296364625, Final residual = 4.614785345e-08, No Iterations 1
DILUPBiCGStab:  Solving for NH, Initial residual = 0.0002522268701, Final residual = 7.311727327e-09, No Iterations 1
DILUPBiCGStab:  Solving for NH2, Initial residual = 0.00343246629, Final residual = 1.405124846e-07, No Iterations 1
DILUPBiCGStab:  Solving for NH3, Initial residual = 0.009233539105, Final residual = 3.648367238e-07, No Iterations 1
DILUPBiCGStab:  Solving for N2H2, Initial residual = 0.0008873681701, Final residual = 3.627918993e-08, No Iterations 1
DILUPBiCGStab:  Solving for NNH, Initial residual = 0.003734865213, Final residual = 1.44581305e-07, No Iterations 1
DILUPBiCGStab:  Solving for NO, Initial residual = 0.00372232964, Final residual = 1.521827407e-07, No Iterations 1
DILUPBiCGStab:  Solving for NO2, Initial residual = 0.005337864807, Final residual = 2.163281181e-07, No Iterations 1
DILUPBiCGStab:  Solving for N2O, Initial residual = 0.003726426389, Final residual = 1.523470024e-07, No Iterations 1
DILUPBiCGStab:  Solving for HNO, Initial residual = 0.004349057941, Final residual = 1.770076753e-07, No Iterations 1
DILUPBiCGStab:  Solving for HCN, Initial residual = 0.003726067275, Final residual = 1.523321376e-07, No Iterations 1
DILUPBiCGStab:  Solving for N2H3, Initial residual = 2.290714033e-07, Final residual = 9.365100026e-12, No Iterations 1
DILUPBiCGStab:  Solving for CH2CHO, Initial residual = 0.003726926729, Final residual = 1.523672766e-07, No Iterations 1
DILUPBiCGStab:  Solving for AR, Initial residual = 1.837147391e-44, Final residual = 1.837147391e-44, No Iterations 0
DICPCG:  Solving for G, Initial residual = 0.0213454825, Final residual = 9.31180947e-06, No Iterations 191
DILUPBiCGStab:  Solving for h, Initial residual = 0.001545798892, Final residual = 1.151654403e-07, No Iterations 1
min/max(T) = 291, 2000
DICPCG:  Solving for p, Initial residual = 0.00404800466, Final residual = 3.768052237e-05, No Iterations 25
diagonal:  Solving for rho, Initial residual = 0, Final residual = 0, No Iterations 0
time step continuity errors : sum local = 5.271103465e-08, global = -1.31783591e-09, cumulative = 1.427874182e-08
DICPCG:  Solving for p, Initial residual = 5.854932808e-05, Final residual = 8.605043512e-07, No Iterations 20
diagonal:  Solving for rho, Initial residual = 0, Final residual = 0, No Iterations 0
time step continuity errors : sum local = 1.31065235e-09, global = -3.430983287e-11, cumulative = 1.424443199e-08
ExecutionTime = 45.64 s  ClockTime = 45 s

Courant Number mean: 0.004312663696 max: 0.5365921468
deltaT = 1.463972257e-05
Time = 0.0001767461547

diagonal:  Solving for rho, Initial residual = 0, Final residual = 0, No Iterations 0
DILUPBiCGStab:  Solving for Ux, Initial residual = 0.01157686858, Final residual = 3.065492623e-06, No Iterations 1
DILUPBiCGStab:  Solving for Uy, Initial residual = 0.01365449379, Final residual = 3.331047056e-07, No Iterations 1
DILUPBiCGStab:  Solving for Uz, Initial residual = 0.002687759353, Final residual = 9.899131365e-07, No Iterations 1
DILUPBiCGStab:  Solving for H2, Initial residual = 0.003108660664, Final residual = 1.140011348e-07, No Iterations 1
DILUPBiCGStab:  Solving for H, Initial residual = 0.003950160974, Final residual = 1.347615233e-07, No Iterations 1
DILUPBiCGStab:  Solving for O, Initial residual = 0.003762397872, Final residual = 1.379238269e-07, No Iterations 1
DILUPBiCGStab:  Solving for O2, Initial residual = 0.000939115134, Final residual = 3.732556057e-08, No Iterations 1
DILUPBiCGStab:  Solving for OH, Initial residual = 0.002639132967, Final residual = 9.675738262e-08, No Iterations 1
DILUPBiCGStab:  Solving for H2O, Initial residual = 0.003110471273, Final residual = 1.140669239e-07, No Iterations 1
DILUPBiCGStab:  Solving for HO2, Initial residual = 0.01407080456, Final residual = 4.953568389e-07, No Iterations 1
DILUPBiCGStab:  Solving for H2O2, Initial residual = 0.008123062425, Final residual = 2.935375241e-07, No Iterations 1
DILUPBiCGStab:  Solving for C, Initial residual = 0.003110269615, Final residual = 1.140595775e-07, No Iterations 1
DILUPBiCGStab:  Solving for CH, Initial residual = 3.631735654e-05, Final residual = 1.28469479e-09, No Iterations 1
DILUPBiCGStab:  Solving for CH2, Initial residual = 1.05814086e-08, Final residual = 3.740384791e-13, No Iterations 1
DILUPBiCGStab:  Solving for CH2(S), Initial residual = 4.733101905e-09, Final residual = 4.733101905e-09, No Iterations 0
DILUPBiCGStab:  Solving for CH3, Initial residual = 7.467330295e-07, Final residual = 2.629382827e-11, No Iterations 1
DILUPBiCGStab:  Solving for CH4, Initial residual = 1.823024012e-06, Final residual = 4.520298278e-09, No Iterations 1
DILUPBiCGStab:  Solving for CO, Initial residual = 0.003102138945, Final residual = 1.137635297e-07, No Iterations 1
DILUPBiCGStab:  Solving for CO2, Initial residual = 0.00311027527, Final residual = 1.140597845e-07, No Iterations 1
DILUPBiCGStab:  Solving for HCO, Initial residual = 0.001021322078, Final residual = 3.635218037e-08, No Iterations 1
DILUPBiCGStab:  Solving for CH2O, Initial residual = 0.00251305371, Final residual = 9.208290606e-08, No Iterations 1
DILUPBiCGStab:  Solving for CH2OH, Initial residual = 0.001204386746, Final residual = 4.416719702e-08, No Iterations 1
DILUPBiCGStab:  Solving for CH3O, Initial residual = 2.554493246e-08, Final residual = 9.120476961e-13, No Iterations 1
DILUPBiCGStab:  Solving for CH3OH, Initial residual = 5.969602529e-05, Final residual = 2.189186185e-09, No Iterations 1
DILUPBiCGStab:  Solving for C2H2, Initial residual = 0.003106602955, Final residual = 1.13925349e-07, No Iterations 1
DILUPBiCGStab:  Solving for C2H3, Initial residual = 0.0001329498508, Final residual = 4.703022599e-09, No Iterations 1
DILUPBiCGStab:  Solving for C2H4, Initial residual = 0.002507965002, Final residual = 9.197266419e-08, No Iterations 1
DILUPBiCGStab:  Solving for C2H5, Initial residual = 1.626759296e-08, Final residual = 5.609827739e-13, No Iterations 1
DILUPBiCGStab:  Solving for C2H6, Initial residual = 1.695413816e-10, Final residual = 1.695413816e-10, No Iterations 0
DILUPBiCGStab:  Solving for HCCO, Initial residual = 0.0001628311613, Final residual = 5.762684066e-09, No Iterations 1
DILUPBiCGStab:  Solving for N, Initial residual = 0.0007408987767, Final residual = 1.576798794e-08, No Iterations 1
DILUPBiCGStab:  Solving for NH, Initial residual = 0.0003477594138, Final residual = 1.26683589e-08, No Iterations 1
DILUPBiCGStab:  Solving for NH2, Initial residual = 0.00281752397, Final residual = 1.0335364e-07, No Iterations 1
DILUPBiCGStab:  Solving for NH3, Initial residual = 0.008340089463, Final residual = 2.972406958e-07, No Iterations 1
DILUPBiCGStab:  Solving for N2H2, Initial residual = 0.0008552479779, Final residual = 3.136411195e-08, No Iterations 1
DILUPBiCGStab:  Solving for NNH, Initial residual = 0.001308438023, Final residual = 4.629046361e-08, No Iterations 1
DILUPBiCGStab:  Solving for NO, Initial residual = 0.003105420883, Final residual = 1.138830718e-07, No Iterations 1
DILUPBiCGStab:  Solving for NO2, Initial residual = 0.004708543373, Final residual = 1.714086153e-07, No Iterations 1
DILUPBiCGStab:  Solving for N2O, Initial residual = 0.003109837489, Final residual = 1.140438625e-07, No Iterations 1
DILUPBiCGStab:  Solving for HNO, Initial residual = 0.004444043978, Final residual = 1.615238505e-07, No Iterations 1
DILUPBiCGStab:  Solving for HCN, Initial residual = 0.003109649724, Final residual = 1.140368449e-07, No Iterations 1
DILUPBiCGStab:  Solving for N2H3, Initial residual = 2.321848146e-07, Final residual = 8.514675523e-12, No Iterations 1
DILUPBiCGStab:  Solving for CH2CHO, Initial residual = 0.003110243073, Final residual = 1.14058604e-07, No Iterations 1
DILUPBiCGStab:  Solving for AR, Initial residual = 1.836991058e-44, Final residual = 1.836991058e-44, No Iterations 0
DICPCG:  Solving for G, Initial residual = 0.01908445562, Final residual = 9.306388673e-06, No Iterations 116
DILUPBiCGStab:  Solving for h, Initial residual = 0.001359580169, Final residual = 8.534484798e-08, No Iterations 1
min/max(T) = 291, 2000
DICPCG:  Solving for p, Initial residual = 0.00389326365, Final residual = 2.993483142e-05, No Iterations 24
diagonal:  Solving for rho, Initial residual = 0, Final residual = 0, No Iterations 0
time step continuity errors : sum local = 4.537944206e-08, global = -1.766032108e-09, cumulative = 1.247839988e-08
DICPCG:  Solving for p, Initial residual = 5.262320075e-05, Final residual = 9.921416783e-07, No Iterations 17
diagonal:  Solving for rho, Initial residual = 0, Final residual = 0, No Iterations 0
time step continuity errors : sum local = 1.555081773e-09, global = 1.246954485e-10, cumulative = 1.260309533e-08
ExecutionTime = 51.09 s  ClockTime = 51 s

Courant Number mean: 0.004066512011 max: 0.5339821874
deltaT = 1.370049351e-05
Time = 0.0001904466483

diagonal:  Solving for rho, Initial residual = 0, Final residual = 0, No Iterations 0
DILUPBiCGStab:  Solving for Ux, Initial residual = 0.01060721124, Final residual = 2.258936052e-06, No Iterations 1
DILUPBiCGStab:  Solving for Uy, Initial residual = 0.01218855743, Final residual = 2.836681086e-07, No Iterations 1
DILUPBiCGStab:  Solving for Uz, Initial residual = 0.002360167034, Final residual = 7.251702856e-07, No Iterations 1
DILUPBiCGStab:  Solving for H2, Initial residual = 0.002649434529, Final residual = 8.764567465e-08, No Iterations 1
DILUPBiCGStab:  Solving for H, Initial residual = 0.006393821815, Final residual = 1.985172271e-07, No Iterations 1
DILUPBiCGStab:  Solving for O, Initial residual = 0.002661910024, Final residual = 8.818315857e-08, No Iterations 1
DILUPBiCGStab:  Solving for O2, Initial residual = 0.0008059899465, Final residual = 2.892965528e-08, No Iterations 1
DILUPBiCGStab:  Solving for OH, Initial residual = 0.002194922972, Final residual = 7.239470823e-08, No Iterations 1
DILUPBiCGStab:  Solving for H2O, Initial residual = 0.002651368302, Final residual = 8.770980615e-08, No Iterations 1
DILUPBiCGStab:  Solving for HO2, Initial residual = 0.01454466806, Final residual = 4.623511956e-07, No Iterations 1
DILUPBiCGStab:  Solving for H2O2, Initial residual = 0.006354781631, Final residual = 2.087167298e-07, No Iterations 1
DILUPBiCGStab:  Solving for C, Initial residual = 0.002651171734, Final residual = 8.770327705e-08, No Iterations 1
DILUPBiCGStab:  Solving for CH, Initial residual = 3.390904302e-05, Final residual = 1.08354011e-09, No Iterations 1
DILUPBiCGStab:  Solving for CH2, Initial residual = 9.823287063e-09, Final residual = 9.823287063e-09, No Iterations 0
DILUPBiCGStab:  Solving for CH2(S), Initial residual = 4.748207024e-09, Final residual = 4.748207024e-09, No Iterations 0
DILUPBiCGStab:  Solving for CH3, Initial residual = 5.973053725e-07, Final residual = 1.864677921e-11, No Iterations 1
DILUPBiCGStab:  Solving for CH4, Initial residual = 1.557573765e-06, Final residual = 3.56683871e-09, No Iterations 1
DILUPBiCGStab:  Solving for CO, Initial residual = 0.002643436246, Final residual = 8.744631103e-08, No Iterations 1
DILUPBiCGStab:  Solving for CO2, Initial residual = 0.002651176073, Final residual = 8.770342073e-08, No Iterations 1
DILUPBiCGStab:  Solving for HCO, Initial residual = 0.0006558603883, Final residual = 2.1298653e-08, No Iterations 1
DILUPBiCGStab:  Solving for CH2O, Initial residual = 0.002087008574, Final residual = 6.87140727e-08, No Iterations 1
DILUPBiCGStab:  Solving for CH2OH, Initial residual = 0.001136543038, Final residual = 3.759792106e-08, No Iterations 1
DILUPBiCGStab:  Solving for CH3O, Initial residual = 3.815784349e-08, Final residual = 1.228408625e-12, No Iterations 1
DILUPBiCGStab:  Solving for CH3OH, Initial residual = 6.009820389e-05, Final residual = 1.988812402e-09, No Iterations 1
DILUPBiCGStab:  Solving for C2H2, Initial residual = 0.002648299192, Final residual = 8.760819566e-08, No Iterations 1
DILUPBiCGStab:  Solving for C2H3, Initial residual = 0.0001239496594, Final residual = 3.960786079e-09, No Iterations 1
DILUPBiCGStab:  Solving for C2H4, Initial residual = 0.002204438903, Final residual = 7.292471525e-08, No Iterations 1
DILUPBiCGStab:  Solving for C2H5, Initial residual = 3.236997964e-08, Final residual = 1.017494843e-12, No Iterations 1
DILUPBiCGStab:  Solving for C2H6, Initial residual = 1.695241553e-10, Final residual = 1.695241553e-10, No Iterations 0
DILUPBiCGStab:  Solving for HCCO, Initial residual = 0.0001507832478, Final residual = 4.820625442e-09, No Iterations 1
DILUPBiCGStab:  Solving for N, Initial residual = 0.0005423444767, Final residual = 1.129018326e-08, No Iterations 1
DILUPBiCGStab:  Solving for NH, Initial residual = 0.0004052586008, Final residual = 1.347376425e-08, No Iterations 1
DILUPBiCGStab:  Solving for NH2, Initial residual = 0.002367844022, Final residual = 7.823462231e-08, No Iterations 1
DILUPBiCGStab:  Solving for NH3, Initial residual = 0.007486372485, Final residual = 2.419922172e-07, No Iterations 1
DILUPBiCGStab:  Solving for N2H2, Initial residual = 0.0008227532665, Final residual = 2.721727667e-08, No Iterations 1
DILUPBiCGStab:  Solving for NNH, Initial residual = 0.001195451998, Final residual = 3.820968979e-08, No Iterations 1
DILUPBiCGStab:  Solving for NO, Initial residual = 0.002645921268, Final residual = 8.75289805e-08, No Iterations 1
DILUPBiCGStab:  Solving for NO2, Initial residual = 0.00429210986, Final residual = 1.41183316e-07, No Iterations 1
DILUPBiCGStab:  Solving for N2O, Initial residual = 0.002650820663, Final residual = 8.769176188e-08, No Iterations 1
DILUPBiCGStab:  Solving for HNO, Initial residual = 0.004900053443, Final residual = 1.598917317e-07, No Iterations 1
DILUPBiCGStab:  Solving for HCN, Initial residual = 0.002650726671, Final residual = 8.768855392e-08, No Iterations 1
DILUPBiCGStab:  Solving for N2H3, Initial residual = 2.349932403e-07, Final residual = 7.773796719e-12, No Iterations 1
DILUPBiCGStab:  Solving for CH2CHO, Initial residual = 0.002651152492, Final residual = 8.770264054e-08, No Iterations 1
DILUPBiCGStab:  Solving for AR, Initial residual = 1.836804409e-44, Final residual = 1.836804409e-44, No Iterations 0
DICPCG:  Solving for G, Initial residual = 0.01765736175, Final residual = 9.229620106e-06, No Iterations 184
DILUPBiCGStab:  Solving for h, Initial residual = 0.001227394039, Final residual = 5.930678755e-08, No Iterations 1
min/max(T) = 291, 2000
DICPCG:  Solving for p, Initial residual = 0.003952653475, Final residual = 3.039361762e-05, No Iterations 23
diagonal:  Solving for rho, Initial residual = 0, Final residual = 0, No Iterations 0
time step continuity errors : sum local = 4.73849174e-08, global = -4.548689857e-09, cumulative = 8.054405468e-09
DICPCG:  Solving for p, Initial residual = 4.719277602e-05, Final residual = 9.561651708e-07, No Iterations 19
diagonal:  Solving for rho, Initial residual = 0, Final residual = 0, No Iterations 0
time step continuity errors : sum local = 1.477951741e-09, global = -9.668366704e-11, cumulative = 7.957721801e-09
ExecutionTime = 56.54 s  ClockTime = 56 s

Courant Number mean: 0.00384742087 max: 0.5202926798
deltaT = 1.314953532e-05
Time = 0.0002035961836

diagonal:  Solving for rho, Initial residual = 0, Final residual = 0, No Iterations 0
DILUPBiCGStab:  Solving for Ux, Initial residual = 0.00992628533, Final residual = 1.659367018e-06, No Iterations 1
DILUPBiCGStab:  Solving for Uy, Initial residual = 0.01063310232, Final residual = 2.479495168e-07, No Iterations 1
DILUPBiCGStab:  Solving for Uz, Initial residual = 0.002163279766, Final residual = 5.191227132e-07, No Iterations 1
DILUPBiCGStab:  Solving for H2, Initial residual = 0.002344970793, Final residual = 7.33849667e-08, No Iterations 1
DILUPBiCGStab:  Solving for H, Initial residual = 0.008059234143, Final residual = 2.38408265e-07, No Iterations 1
DILUPBiCGStab:  Solving for O, Initial residual = 0.001675099315, Final residual = 5.05863294e-08, No Iterations 1
DILUPBiCGStab:  Solving for O2, Initial residual = 0.0007178108252, Final residual = 2.438647458e-08, No Iterations 1
DILUPBiCGStab:  Solving for OH, Initial residual = 0.001886230563, Final residual = 5.862957739e-08, No Iterations 1
DILUPBiCGStab:  Solving for H2O, Initial residual = 0.002347043032, Final residual = 7.345077236e-08, No Iterations 1
DILUPBiCGStab:  Solving for HO2, Initial residual = 0.01381958088, Final residual = 4.171931145e-07, No Iterations 1
DILUPBiCGStab:  Solving for H2O2, Initial residual = 0.005244680546, Final residual = 1.640501473e-07, No Iterations 1
DILUPBiCGStab:  Solving for C, Initial residual = 0.002346842101, Final residual = 7.344439061e-08, No Iterations 1
DILUPBiCGStab:  Solving for CH, Initial residual = 1.61827684e-05, Final residual = 4.942381084e-10, No Iterations 1
DILUPBiCGStab:  Solving for CH2, Initial residual = 1.472487071e-08, Final residual = 4.475847914e-13, No Iterations 1
DILUPBiCGStab:  Solving for CH2(S), Initial residual = 4.759898381e-09, Final residual = 4.759898381e-09, No Iterations 0
DILUPBiCGStab:  Solving for CH3, Initial residual = 4.337527631e-07, Final residual = 1.241127291e-11, No Iterations 1
DILUPBiCGStab:  Solving for CH4, Initial residual = 1.381668305e-06, Final residual = 3.038066522e-09, No Iterations 1
DILUPBiCGStab:  Solving for CO, Initial residual = 0.002339338635, Final residual = 7.320591387e-08, No Iterations 1
DILUPBiCGStab:  Solving for CO2, Initial residual = 0.002346845687, Final residual = 7.344450334e-08, No Iterations 1
DILUPBiCGStab:  Solving for HCO, Initial residual = 0.0003604233286, Final residual = 1.090037683e-08, No Iterations 1
DILUPBiCGStab:  Solving for CH2O, Initial residual = 0.001801531134, Final residual = 5.583313718e-08, No Iterations 1
DILUPBiCGStab:  Solving for CH2OH, Initial residual = 0.001083009502, Final residual = 3.389271916e-08, No Iterations 1
DILUPBiCGStab:  Solving for CH3O, Initial residual = 5.749094971e-08, Final residual = 1.752471493e-12, No Iterations 1
DILUPBiCGStab:  Solving for CH3OH, Initial residual = 6.044012069e-05, Final residual = 1.892477579e-09, No Iterations 1
DILUPBiCGStab:  Solving for C2H2, Initial residual = 0.002344413552, Final residual = 7.336803947e-08, No Iterations 1
DILUPBiCGStab:  Solving for C2H3, Initial residual = 5.910820465e-05, Final residual = 1.805315914e-09, No Iterations 1
DILUPBiCGStab:  Solving for C2H4, Initial residual = 0.001992496824, Final residual = 6.235393161e-08, No Iterations 1
DILUPBiCGStab:  Solving for C2H5, Initial residual = 5.933688973e-08, Final residual = 1.777792806e-12, No Iterations 1
DILUPBiCGStab:  Solving for C2H6, Initial residual = 1.695046747e-10, Final residual = 1.695046747e-10, No Iterations 0
DILUPBiCGStab:  Solving for HCCO, Initial residual = 6.993406538e-05, Final residual = 2.138459515e-09, No Iterations 1
DILUPBiCGStab:  Solving for N, Initial residual = 0.0007291127383, Final residual = 1.834990465e-08, No Iterations 1
DILUPBiCGStab:  Solving for NH, Initial residual = 0.0002749568541, Final residual = 8.666418365e-09, No Iterations 1
DILUPBiCGStab:  Solving for NH2, Initial residual = 0.002075524155, Final residual = 6.475708474e-08, No Iterations 1
DILUPBiCGStab:  Solving for NH3, Initial residual = 0.006874491477, Final residual = 2.113299536e-07, No Iterations 1
DILUPBiCGStab:  Solving for N2H2, Initial residual = 0.000796231269, Final residual = 2.491707122e-08, No Iterations 1
DILUPBiCGStab:  Solving for NNH, Initial residual = 0.0005549648003, Final residual = 1.696942947e-08, No Iterations 1
DILUPBiCGStab:  Solving for NO, Initial residual = 0.002340846971, Final residual = 7.325403979e-08, No Iterations 1
DILUPBiCGStab:  Solving for NO2, Initial residual = 0.00411803148, Final residual = 1.283861553e-07, No Iterations 1
DILUPBiCGStab:  Solving for N2O, Initial residual = 0.002346545311, Final residual = 7.343518191e-08, No Iterations 1
DILUPBiCGStab:  Solving for HNO, Initial residual = 0.005626256746, Final residual = 1.731133602e-07, No Iterations 1
DILUPBiCGStab:  Solving for HCN, Initial residual = 0.002346497053, Final residual = 7.343359219e-08, No Iterations 1
DILUPBiCGStab:  Solving for N2H3, Initial residual = 2.375335987e-07, Final residual = 7.433571893e-12, No Iterations 1
DILUPBiCGStab:  Solving for CH2CHO, Initial residual = 0.002346826636, Final residual = 7.344390642e-08, No Iterations 1
DILUPBiCGStab:  Solving for AR, Initial residual = 1.836593333e-44, Final residual = 1.836593333e-44, No Iterations 0
DICPCG:  Solving for G, Initial residual = 0.01681840666, Final residual = 9.963895051e-06, No Iterations 101
DILUPBiCGStab:  Solving for h, Initial residual = 0.001149689094, Final residual = 5.390285516e-08, No Iterations 1
min/max(T) = 291, 2000
DICPCG:  Solving for p, Initial residual = 0.004247535127, Final residual = 3.703884542e-05, No Iterations 22
diagonal:  Solving for rho, Initial residual = 0, Final residual = 0, No Iterations 0
time step continuity errors : sum local = 5.69180574e-08, global = -4.284271089e-09, cumulative = 3.673450712e-09
DICPCG:  Solving for p, Initial residual = 4.888798815e-05, Final residual = 8.238935009e-07, No Iterations 20
diagonal:  Solving for rho, Initial residual = 0, Final residual = 0, No Iterations 0
time step continuity errors : sum local = 1.211873084e-09, global = -1.621596744e-10, cumulative = 3.511291038e-09
ExecutionTime = 62.05 s  ClockTime = 62 s

Courant Number mean: 0.00372958574 max: 0.5112563989
deltaT = 1.285617299e-05
Time = 0.0002164523566

diagonal:  Solving for rho, Initial residual = 0, Final residual = 0, No Iterations 0
DILUPBiCGStab:  Solving for Ux, Initial residual = 0.009457678085, Final residual = 1.256072964e-06, No Iterations 1
DILUPBiCGStab:  Solving for Uy, Initial residual = 0.009637116976, Final residual = 2.271982761e-07, No Iterations 1
DILUPBiCGStab:  Solving for Uz, Initial residual = 0.002039859991, Final residual = 3.674512371e-07, No Iterations 1
DILUPBiCGStab:  Solving for H2, Initial residual = 0.002131728255, Final residual = 6.53487978e-08, No Iterations 1
DILUPBiCGStab:  Solving for H, Initial residual = 0.001958548707, Final residual = 5.679756737e-08, No Iterations 1
DILUPBiCGStab:  Solving for O, Initial residual = 0.001618353846, Final residual = 4.778138341e-08, No Iterations 1
DILUPBiCGStab:  Solving for O2, Initial residual = 0.0006562637764, Final residual = 2.184279494e-08, No Iterations 1
DILUPBiCGStab:  Solving for OH, Initial residual = 0.001698594426, Final residual = 5.15450462e-08, No Iterations 1
DILUPBiCGStab:  Solving for H2O, Initial residual = 0.002133981707, Final residual = 6.541977639e-08, No Iterations 1
DILUPBiCGStab:  Solving for HO2, Initial residual = 0.008362517433, Final residual = 2.507018309e-07, No Iterations 1
DILUPBiCGStab:  Solving for H2O2, Initial residual = 0.004492184425, Final residual = 1.384450448e-07, No Iterations 1
DILUPBiCGStab:  Solving for C, Initial residual = 0.002133774146, Final residual = 6.541324756e-08, No Iterations 1
DILUPBiCGStab:  Solving for CH, Initial residual = 3.396583849e-06, Final residual = 1.054902383e-10, No Iterations 1
DILUPBiCGStab:  Solving for CH2, Initial residual = 8.263901449e-10, Final residual = 8.263901449e-10, No Iterations 0
DILUPBiCGStab:  Solving for CH2(S), Initial residual = 4.763195666e-09, Final residual = 4.763195666e-09, No Iterations 0
DILUPBiCGStab:  Solving for CH3, Initial residual = 3.198568883e-07, Final residual = 8.980669356e-12, No Iterations 1
DILUPBiCGStab:  Solving for CH4, Initial residual = 1.258744963e-06, Final residual = 2.735209698e-09, No Iterations 1
DILUPBiCGStab:  Solving for CO, Initial residual = 0.002126386881, Final residual = 6.518064942e-08, No Iterations 1
DILUPBiCGStab:  Solving for CO2, Initial residual = 0.002133777264, Final residual = 6.541334403e-08, No Iterations 1
DILUPBiCGStab:  Solving for HCO, Initial residual = 0.0003245475138, Final residual = 9.551244185e-09, No Iterations 1
DILUPBiCGStab:  Solving for CH2O, Initial residual = 0.0015983047, Final residual = 4.82285958e-08, No Iterations 1
DILUPBiCGStab:  Solving for CH2OH, Initial residual = 0.001040654604, Final residual = 3.190233324e-08, No Iterations 1
DILUPBiCGStab:  Solving for CH3O, Initial residual = 7.107334677e-08, Final residual = 2.137156283e-12, No Iterations 1
DILUPBiCGStab:  Solving for CH3OH, Initial residual = 6.076371744e-05, Final residual = 1.863843255e-09, No Iterations 1
DILUPBiCGStab:  Solving for C2H2, Initial residual = 0.002131608681, Final residual = 6.53461869e-08, No Iterations 1
DILUPBiCGStab:  Solving for C2H3, Initial residual = 1.228345693e-05, Final residual = 3.815860546e-10, No Iterations 1
DILUPBiCGStab:  Solving for C2H4, Initial residual = 0.001838713669, Final residual = 5.636544337e-08, No Iterations 1
DILUPBiCGStab:  Solving for C2H5, Initial residual = 7.368535699e-08, Final residual = 2.186796653e-12, No Iterations 1
DILUPBiCGStab:  Solving for C2H6, Initial residual = 1.694832109e-10, Final residual = 1.694832109e-10, No Iterations 0
DILUPBiCGStab:  Solving for HCCO, Initial residual = 1.108664599e-05, Final residual = 3.442933437e-10, No Iterations 1
DILUPBiCGStab:  Solving for N, Initial residual = 0.0008697073955, Final residual = 2.453455245e-08, No Iterations 1
DILUPBiCGStab:  Solving for NH, Initial residual = 0.0001157423003, Final residual = 3.248271556e-09, No Iterations 1
DILUPBiCGStab:  Solving for NH2, Initial residual = 0.001872778685, Final residual = 5.712545613e-08, No Iterations 1
DILUPBiCGStab:  Solving for NH3, Initial residual = 0.006375914571, Final residual = 1.930828584e-07, No Iterations 1
DILUPBiCGStab:  Solving for N2H2, Initial residual = 0.0007747048465, Final residual = 2.374755766e-08, No Iterations 1
DILUPBiCGStab:  Solving for NNH, Initial residual = 0.000106062337, Final residual = 3.300158067e-09, No Iterations 1
DILUPBiCGStab:  Solving for NO, Initial residual = 0.002126988633, Final residual = 6.519978245e-08, No Iterations 1
DILUPBiCGStab:  Solving for NO2, Initial residual = 0.004018309523, Final residual = 1.230630883e-07, No Iterations 1
DILUPBiCGStab:  Solving for N2O, Initial residual = 0.002133515925, Final residual = 6.540539869e-08, No Iterations 1
DILUPBiCGStab:  Solving for HNO, Initial residual = 0.00499379139, Final residual = 1.51431602e-07, No Iterations 1
DILUPBiCGStab:  Solving for HCN, Initial residual = 0.002133491678, Final residual = 6.540458792e-08, No Iterations 1
DILUPBiCGStab:  Solving for N2H3, Initial residual = 2.398879137e-07, Final residual = 7.353924198e-12, No Iterations 1
DILUPBiCGStab:  Solving for CH2CHO, Initial residual = 0.002133760976, Final residual = 6.541284309e-08, No Iterations 1
DILUPBiCGStab:  Solving for AR, Initial residual = 1.836360765e-44, Final residual = 1.836360765e-44, No Iterations 0
DICPCG:  Solving for G, Initial residual = 0.01629394951, Final residual = 9.497150816e-06, No Iterations 154
DILUPBiCGStab:  Solving for h, Initial residual = 0.001103898208, Final residual = 5.549255814e-08, No Iterations 1
min/max(T) = 291, 2000
DICPCG:  Solving for p, Initial residual = 0.004771811998, Final residual = 4.181978791e-05, No Iterations 22
diagonal:  Solving for rho, Initial residual = 0, Final residual = 0, No Iterations 0
time step continuity errors : sum local = 6.110281895e-08, global = -3.627475297e-09, cumulative = -1.161842595e-10
DICPCG:  Solving for p, Initial residual = 5.184516904e-05, Final residual = 9.83236503e-07, No Iterations 20
diagonal:  Solving for rho, Initial residual = 0, Final residual = 0, No Iterations 0
time step continuity errors : sum local = 1.332616525e-09, global = -2.286210973e-10, cumulative = -3.448053568e-10
ExecutionTime = 68.11 s  ClockTime = 68 s

Courant Number mean: 0.003679806068 max: 0.5059925651
deltaT = 1.268942626e-05
Time = 0.0002291417828

diagonal:  Solving for rho, Initial residual = 0, Final residual = 0, No Iterations 0
DILUPBiCGStab:  Solving for Ux, Initial residual = 0.009110886717, Final residual = 9.491093101e-07, No Iterations 1
DILUPBiCGStab:  Solving for Uy, Initial residual = 0.008666091467, Final residual = 2.157632109e-07, No Iterations 1
DILUPBiCGStab:  Solving for Uz, Initial residual = 0.001952696777, Final residual = 2.483435869e-07, No Iterations 1
DILUPBiCGStab:  Solving for H2, Initial residual = 0.0019675404, Final residual = 6.012284115e-08, No Iterations 1
DILUPBiCGStab:  Solving for H, Initial residual = 0.002006242293, Final residual = 5.843896131e-08, No Iterations 1
DILUPBiCGStab:  Solving for O, Initial residual = 0.001575687545, Final residual = 4.628292387e-08, No Iterations 1
DILUPBiCGStab:  Solving for O2, Initial residual = 0.0006089639545, Final residual = 2.020306506e-08, No Iterations 1
DILUPBiCGStab:  Solving for OH, Initial residual = 0.001555084544, Final residual = 4.688037418e-08, No Iterations 1
DILUPBiCGStab:  Solving for H2O, Initial residual = 0.001969999397, Final residual = 6.020104448e-08, No Iterations 1
DILUPBiCGStab:  Solving for HO2, Initial residual = 0.005876078641, Final residual = 1.777183821e-07, No Iterations 1
DILUPBiCGStab:  Solving for H2O2, Initial residual = 0.003938742913, Final residual = 1.21587516e-07, No Iterations 1
DILUPBiCGStab:  Solving for C, Initial residual = 0.001969788219, Final residual = 6.019434914e-08, No Iterations 1
DILUPBiCGStab:  Solving for CH, Initial residual = 3.831580624e-06, Final residual = 1.150800938e-10, No Iterations 1
DILUPBiCGStab:  Solving for CH2, Initial residual = 7.360853842e-10, Final residual = 7.360853842e-10, No Iterations 0
DILUPBiCGStab:  Solving for CH2(S), Initial residual = 4.763466109e-09, Final residual = 4.763466109e-09, No Iterations 0
DILUPBiCGStab:  Solving for CH3, Initial residual = 2.542366132e-07, Final residual = 7.295872896e-12, No Iterations 1
DILUPBiCGStab:  Solving for CH4, Initial residual = 1.164383906e-06, Final residual = 2.537209181e-09, No Iterations 1
DILUPBiCGStab:  Solving for CO, Initial residual = 0.001962458326, Final residual = 5.996168722e-08, No Iterations 1
DILUPBiCGStab:  Solving for CO2, Initial residual = 0.001969791012, Final residual = 6.019443577e-08, No Iterations 1
DILUPBiCGStab:  Solving for HCO, Initial residual = 0.0005671693471, Final residual = 1.642463609e-08, No Iterations 1
DILUPBiCGStab:  Solving for CH2O, Initial residual = 0.00143974859, Final residual = 4.299138998e-08, No Iterations 1
DILUPBiCGStab:  Solving for CH2OH, Initial residual = 0.001004673703, Final residual = 3.070144246e-08, No Iterations 1
DILUPBiCGStab:  Solving for CH3O, Initial residual = 8.332090131e-08, Final residual = 2.517032396e-12, No Iterations 1
DILUPBiCGStab:  Solving for CH3OH, Initial residual = 6.107775817e-05, Final residual = 1.867415458e-09, No Iterations 1
DILUPBiCGStab:  Solving for C2H2, Initial residual = 0.001967783524, Final residual = 6.013202513e-08, No Iterations 1
DILUPBiCGStab:  Solving for C2H3, Initial residual = 1.420539989e-05, Final residual = 4.264478652e-10, No Iterations 1
DILUPBiCGStab:  Solving for C2H4, Initial residual = 0.001717086125, Final residual = 5.246827867e-08, No Iterations 1
DILUPBiCGStab:  Solving for C2H5, Initial residual = 8.963109804e-08, Final residual = 2.677455343e-12, No Iterations 1
DILUPBiCGStab:  Solving for C2H6, Initial residual = 1.694601716e-10, Final residual = 1.694601716e-10, No Iterations 0
DILUPBiCGStab:  Solving for HCCO, Initial residual = 2.236344722e-05, Final residual = 6.652421088e-10, No Iterations 1
DILUPBiCGStab:  Solving for N, Initial residual = 0.0009796539698, Final residual = 2.879976891e-08, No Iterations 1
DILUPBiCGStab:  Solving for NH, Initial residual = 7.682114344e-05, Final residual = 1.973320156e-09, No Iterations 1
DILUPBiCGStab:  Solving for NH2, Initial residual = 0.001714696596, Final residual = 5.202142847e-08, No Iterations 1
DILUPBiCGStab:  Solving for NH3, Initial residual = 0.005900944882, Final residual = 1.792254464e-07, No Iterations 1
DILUPBiCGStab:  Solving for N2H2, Initial residual = 0.0007559503472, Final residual = 2.309793669e-08, No Iterations 1
DILUPBiCGStab:  Solving for NNH, Initial residual = 0.000155389762, Final residual = 4.64558184e-09, No Iterations 1
DILUPBiCGStab:  Solving for NO, Initial residual = 0.001962418556, Final residual = 5.996053293e-08, No Iterations 1
DILUPBiCGStab:  Solving for NO2, Initial residual = 0.003883982416, Final residual = 1.190387395e-07, No Iterations 1
DILUPBiCGStab:  Solving for N2O, Initial residual = 0.001969559742, Final residual = 6.018742555e-08, No Iterations 1
DILUPBiCGStab:  Solving for HNO, Initial residual = 0.004510890177, Final residual = 1.371858917e-07, No Iterations 1
DILUPBiCGStab:  Solving for HCN, Initial residual = 0.001969549663, Final residual = 6.018705872e-08, No Iterations 1
DILUPBiCGStab:  Solving for N2H3, Initial residual = 2.421086776e-07, Final residual = 7.398331759e-12, No Iterations 1
DILUPBiCGStab:  Solving for CH2CHO, Initial residual = 0.001969776631, Final residual = 6.019399353e-08, No Iterations 1
DILUPBiCGStab:  Solving for AR, Initial residual = 1.83611112e-44, Final residual = 1.83611112e-44, No Iterations 0
DICPCG:  Solving for G, Initial residual = 0.01589555087, Final residual = 8.947650012e-06, No Iterations 104
DILUPBiCGStab:  Solving for h, Initial residual = 0.001074590527, Final residual = 5.832205527e-08, No Iterations 1
min/max(T) = 291, 2000
DICPCG:  Solving for p, Initial residual = 0.005541092693, Final residual = 5.108748195e-05, No Iterations 22
diagonal:  Solving for rho, Initial residual = 0, Final residual = 0, No Iterations 0
time step continuity errors : sum local = 6.870642107e-08, global = -3.810322801e-09, cumulative = -4.155128158e-09
DICPCG:  Solving for p, Initial residual = 6.151957925e-05, Final residual = 8.755829571e-07, No Iterations 21
diagonal:  Solving for rho, Initial residual = 0, Final residual = 0, No Iterations 0
time step continuity errors : sum local = 1.060233408e-09, global = -2.626094426e-10, cumulative = -4.4177376e-09
ExecutionTime = 74.13 s  ClockTime = 74 s

Courant Number mean: 0.003662654879 max: 0.5013549225
deltaT = 1.264017881e-05
Time = 0.0002417819616

diagonal:  Solving for rho, Initial residual = 0, Final residual = 0, No Iterations 0
DILUPBiCGStab:  Solving for Ux, Initial residual = 0.008884811192, Final residual = 7.381585054e-07, No Iterations 1
DILUPBiCGStab:  Solving for Uy, Initial residual = 0.008290413855, Final residual = 2.12159747e-07, No Iterations 1
DILUPBiCGStab:  Solving for Uz, Initial residual = 0.001901335479, Final residual = 1.545231259e-07, No Iterations 1
DILUPBiCGStab:  Solving for H2, Initial residual = 0.00184059548, Final residual = 5.703182066e-08, No Iterations 1
DILUPBiCGStab:  Solving for H, Initial residual = 0.002032819997, Final residual = 6.050592625e-08, No Iterations 1
DILUPBiCGStab:  Solving for O, Initial residual = 0.001545611455, Final residual = 4.594242483e-08, No Iterations 1
DILUPBiCGStab:  Solving for O2, Initial residual = 0.0005725668884, Final residual = 1.92581224e-08, No Iterations 1
DILUPBiCGStab:  Solving for OH, Initial residual = 0.001444538455, Final residual = 4.401144437e-08, No Iterations 1
DILUPBiCGStab:  Solving for H2O, Initial residual = 0.001843291341, Final residual = 5.711991577e-08, No Iterations 1
DILUPBiCGStab:  Solving for HO2, Initial residual = 0.004505300064, Final residual = 1.396102902e-07, No Iterations 1
DILUPBiCGStab:  Solving for H2O2, Initial residual = 0.00352110345, Final residual = 1.10635441e-07, No Iterations 1
DILUPBiCGStab:  Solving for C, Initial residual = 0.001843077942, Final residual = 5.711297841e-08, No Iterations 1
DILUPBiCGStab:  Solving for CH, Initial residual = 9.810252883e-06, Final residual = 2.902343047e-10, No Iterations 1
DILUPBiCGStab:  Solving for CH2, Initial residual = 3.300654347e-09, Final residual = 3.300654347e-09, No Iterations 0
[...]
DICPCG:  Solving for p, Initial residual = 0.0005442833796, Final residual = 9.172502327e-07, No Iterations 27
diagonal:  Solving for rho, Initial residual = 0, Final residual = 0, No Iterations 0
time step continuity errors : sum local = 4.586734166e-11, global = 5.71136665e-12, cumulative = 2.140853446e-07
ExecutionTime = 1902.46 s  ClockTime = 1902 s

Courant Number mean: 0.002802106738 max: 0.4997054243
deltaT = 1.126615568e-05
Time = 0.004738705295

diagonal:  Solving for rho, Initial residual = 0, Final residual = 0, No Iterations 0
DILUPBiCGStab:  Solving for Ux, Initial residual = 0.03455305756, Final residual = 1.735240836e-07, No Iterations 1
DILUPBiCGStab:  Solving for Uy, Initial residual = 0.001053849876, Final residual = 7.698099973e-09, No Iterations 1
DILUPBiCGStab:  Solving for Uz, Initial residual = 0.002206062378, Final residual = 7.350546529e-09, No Iterations 1
DILUPBiCGStab:  Solving for H2, Initial residual = 2.98595043e-05, Final residual = 2.300079108e-09, No Iterations 1
DILUPBiCGStab:  Solving for H, Initial residual = 3.130772826e-05, Final residual = 2.405610694e-09, No Iterations 1
DILUPBiCGStab:  Solving for O, Initial residual = 2.810014155e-05, Final residual = 1.341596277e-09, No Iterations 1
DILUPBiCGStab:  Solving for O2, Initial residual = 1.006278573e-05, Final residual = 2.42902801e-10, No Iterations 1
DILUPBiCGStab:  Solving for OH, Initial residual = 2.408415096e-05, Final residual = 1.098839265e-09, No Iterations 1
DILUPBiCGStab:  Solving for H2O, Initial residual = 2.728115514e-05, Final residual = 5.217618037e-10, No Iterations 1
DILUPBiCGStab:  Solving for HO2, Initial residual = 3.837393884e-05, Final residual = 1.22304082e-09, No Iterations 1
DILUPBiCGStab:  Solving for H2O2, Initial residual = 6.916405876e-05, Final residual = 1.442229929e-09, No Iterations 1
DILUPBiCGStab:  Solving for C, Initial residual = 2.696960454e-05, Final residual = 5.042120242e-10, No Iterations 1
DILUPBiCGStab:  Solving for CH, Initial residual = 3.117060119e-05, Final residual = 4.20722272e-09, No Iterations 1
DILUPBiCGStab:  Solving for CH2, Initial residual = 7.752062728e-09, Final residual = 7.752062728e-09, No Iterations 0
DILUPBiCGStab:  Solving for CH2(S), Initial residual = 6.264633872e-09, Final residual = 6.264633872e-09, No Iterations 0
DILUPBiCGStab:  Solving for CH3, Initial residual = 1.001743414e-08, Final residual = 3.329707198e-10, No Iterations 1
DILUPBiCGStab:  Solving for CH4, Initial residual = 3.432521612e-08, Final residual = 6.923059237e-11, No Iterations 1
DILUPBiCGStab:  Solving for CO, Initial residual = 2.76658148e-05, Final residual = 1.172815045e-09, No Iterations 1
DILUPBiCGStab:  Solving for CO2, Initial residual = 2.72786185e-05, Final residual = 5.222526193e-10, No Iterations 1
DILUPBiCGStab:  Solving for HCO, Initial residual = 3.400287223e-05, Final residual = 4.277725613e-09, No Iterations 1
DILUPBiCGStab:  Solving for CH2O, Initial residual = 1.002985156e-08, Final residual = 3.133160761e-10, No Iterations 1
DILUPBiCGStab:  Solving for CH2OH, Initial residual = 1.373106106e-07, Final residual = 7.464862675e-10, No Iterations 1
DILUPBiCGStab:  Solving for CH3O, Initial residual = 9.539349057e-09, Final residual = 9.539349057e-09, No Iterations 0
DILUPBiCGStab:  Solving for CH3OH, Initial residual = 3.714156251e-08, Final residual = 9.528995891e-10, No Iterations 1
DILUPBiCGStab:  Solving for C2H2, Initial residual = 2.140950627e-05, Final residual = 9.702585561e-10, No Iterations 1
DILUPBiCGStab:  Solving for C2H3, Initial residual = 2.796285188e-05, Final residual = 1.924488472e-09, No Iterations 1
DILUPBiCGStab:  Solving for C2H4, Initial residual = 1.750470372e-06, Final residual = 6.707489749e-10, No Iterations 1
DILUPBiCGStab:  Solving for C2H5, Initial residual = 1.436826298e-08, Final residual = 5.777686698e-10, No Iterations 1
DILUPBiCGStab:  Solving for C2H6, Initial residual = 2.507569918e-08, Final residual = 7.268369549e-10, No Iterations 1
DILUPBiCGStab:  Solving for HCCO, Initial residual = 3.071425711e-05, Final residual = 3.906616226e-09, No Iterations 1
DILUPBiCGStab:  Solving for N, Initial residual = 4.148777325e-05, Final residual = 5.401556161e-09, No Iterations 1
DILUPBiCGStab:  Solving for NH, Initial residual = 3.969445466e-05, Final residual = 5.32195749e-09, No Iterations 1
DILUPBiCGStab:  Solving for NH2, Initial residual = 4.947778703e-05, Final residual = 5.636647083e-09, No Iterations 1
DILUPBiCGStab:  Solving for NH3, Initial residual = 4.893944085e-05, Final residual = 5.240405554e-09, No Iterations 1
DILUPBiCGStab:  Solving for N2H2, Initial residual = 4.422790458e-05, Final residual = 5.342543502e-09, No Iterations 1
DILUPBiCGStab:  Solving for NNH, Initial residual = 3.274618471e-05, Final residual = 4.292078168e-09, No Iterations 1
DILUPBiCGStab:  Solving for NO, Initial residual = 2.650340248e-05, Final residual = 5.151965355e-10, No Iterations 1
DILUPBiCGStab:  Solving for NO2, Initial residual = 6.970465172e-05, Final residual = 1.230647239e-09, No Iterations 1
DILUPBiCGStab:  Solving for N2O, Initial residual = 2.839487477e-05, Final residual = 6.919213516e-10, No Iterations 1
DILUPBiCGStab:  Solving for HNO, Initial residual = 2.708188557e-05, Final residual = 1.22901404e-09, No Iterations 1
DILUPBiCGStab:  Solving for HCN, Initial residual = 2.681874709e-05, Final residual = 5.014236168e-10, No Iterations 1
DILUPBiCGStab:  Solving for N2H3, Initial residual = 1.43382786e-05, Final residual = 7.690305875e-10, No Iterations 1
DILUPBiCGStab:  Solving for CH2CHO, Initial residual = 2.644396293e-05, Final residual = 4.853955014e-10, No Iterations 1
DILUPBiCGStab:  Solving for AR, Initial residual = 1.834757658e-44, Final residual = 1.834757658e-44, No Iterations 0
DICPCG:  Solving for G, Initial residual = 0.001725450837, Final residual = 9.631825095e-06, No Iterations 191
DILUPBiCGStab:  Solving for h, Initial residual = 4.407222962e-05, Final residual = 2.031466258e-09, No Iterations 1
min/max(T) = 291, 2000
DICPCG:  Solving for p, Initial residual = 0.0640097503, Final residual = 0.0005502362766, No Iterations 15
diagonal:  Solving for rho, Initial residual = 0, Final residual = 0, No Iterations 0
time step continuity errors : sum local = 2.905796277e-08, global = -3.624575274e-10, cumulative = 2.137228871e-07
DICPCG:  Solving for p, Initial residual = 0.0005462459304, Final residual = 9.916420941e-07, No Iterations 27
diagonal:  Solving for rho, Initial residual = 0, Final residual = 0, No Iterations 0
time step continuity errors : sum local = 5.277090543e-11, global = 5.240248183e-12, cumulative = 2.137281273e-07
ExecutionTime = 1908.04 s  ClockTime = 1908 s

Courant Number mean: 0.002800567316 max: 0.4996163395
deltaT = 1.126615568e-05
Time = 0.004749971451

diagonal:  Solving for rho, Initial residual = 0, Final residual = 0, No Iterations 0
DILUPBiCGStab:  Solving for Ux, Initial residual = 0.03801523175, Final residual = 1.904660235e-07, No Iterations 1
DILUPBiCGStab:  Solving for Uy, Initial residual = 0.001032056908, Final residual = 7.161958419e-09, No Iterations 1
DILUPBiCGStab:  Solving for Uz, Initial residual = 0.002489765376, Final residual = 7.675738677e-09, No Iterations 1
DILUPBiCGStab:  Solving for H2, Initial residual = 2.97684562e-05, Final residual = 2.294196305e-09, No Iterations 1
DILUPBiCGStab:  Solving for H, Initial residual = 3.119372727e-05, Final residual = 2.395729186e-09, No Iterations 1
DILUPBiCGStab:  Solving for O, Initial residual = 2.796164818e-05, Final residual = 1.331454087e-09, No Iterations 1
DILUPBiCGStab:  Solving for O2, Initial residual = 1.003212613e-05, Final residual = 2.424771696e-10, No Iterations 1
DILUPBiCGStab:  Solving for OH, Initial residual = 2.40217894e-05, Final residual = 1.093973396e-09, No Iterations 1
DILUPBiCGStab:  Solving for H2O, Initial residual = 2.720239385e-05, Final residual = 5.210839502e-10, No Iterations 1
DILUPBiCGStab:  Solving for HO2, Initial residual = 3.828792491e-05, Final residual = 1.218584167e-09, No Iterations 1
DILUPBiCGStab:  Solving for H2O2, Initial residual = 6.939750504e-05, Final residual = 1.47719708e-09, No Iterations 1
DILUPBiCGStab:  Solving for C, Initial residual = 2.689001189e-05, Final residual = 5.033593264e-10, No Iterations 1
DILUPBiCGStab:  Solving for CH, Initial residual = 3.109494573e-05, Final residual = 4.199876129e-09, No Iterations 1
DILUPBiCGStab:  Solving for CH2, Initial residual = 1.022557394e-08, Final residual = 1.001152013e-09, No Iterations 1
DILUPBiCGStab:  Solving for CH2(S), Initial residual = 8.241568471e-09, Final residual = 8.241568471e-09, No Iterations 0
DILUPBiCGStab:  Solving for CH3, Initial residual = 9.984541988e-09, Final residual = 9.984541988e-09, No Iterations 0
DILUPBiCGStab:  Solving for CH4, Initial residual = 3.423398374e-08, Final residual = 6.902011435e-11, No Iterations 1
DILUPBiCGStab:  Solving for CO, Initial residual = 2.760775532e-05, Final residual = 1.175474049e-09, No Iterations 1
DILUPBiCGStab:  Solving for CO2, Initial residual = 2.719984763e-05, Final residual = 5.215774962e-10, No Iterations 1
DILUPBiCGStab:  Solving for HCO, Initial residual = 3.391580565e-05, Final residual = 4.270661852e-09, No Iterations 1
DILUPBiCGStab:  Solving for CH2O, Initial residual = 1.000319689e-08, Final residual = 3.115137858e-10, No Iterations 1
DILUPBiCGStab:  Solving for CH2OH, Initial residual = 1.298576701e-07, Final residual = 7.516517664e-10, No Iterations 1
DILUPBiCGStab:  Solving for CH3O, Initial residual = 1.006661816e-08, Final residual = 4.438683884e-10, No Iterations 1
DILUPBiCGStab:  Solving for CH3OH, Initial residual = 3.686344416e-08, Final residual = 9.446878606e-10, No Iterations 1
DILUPBiCGStab:  Solving for C2H2, Initial residual = 2.133956348e-05, Final residual = 9.678042727e-10, No Iterations 1
DILUPBiCGStab:  Solving for C2H3, Initial residual = 2.787307219e-05, Final residual = 1.917477868e-09, No Iterations 1
DILUPBiCGStab:  Solving for C2H4, Initial residual = 1.654005154e-06, Final residual = 6.654441777e-10, No Iterations 1
DILUPBiCGStab:  Solving for C2H5, Initial residual = 1.412780299e-08, Final residual = 5.699896305e-10, No Iterations 1
DILUPBiCGStab:  Solving for C2H6, Initial residual = 2.522750634e-08, Final residual = 7.303005255e-10, No Iterations 1
DILUPBiCGStab:  Solving for HCCO, Initial residual = 3.062823106e-05, Final residual = 3.897046264e-09, No Iterations 1
DILUPBiCGStab:  Solving for N, Initial residual = 4.135079095e-05, Final residual = 5.389272686e-09, No Iterations 1
DILUPBiCGStab:  Solving for NH, Initial residual = 3.956212115e-05, Final residual = 5.308395308e-09, No Iterations 1
DILUPBiCGStab:  Solving for NH2, Initial residual = 4.918344939e-05, Final residual = 5.606016541e-09, No Iterations 1
DILUPBiCGStab:  Solving for NH3, Initial residual = 4.861066186e-05, Final residual = 5.205759592e-09, No Iterations 1
DILUPBiCGStab:  Solving for N2H2, Initial residual = 4.395955468e-05, Final residual = 5.314399412e-09, No Iterations 1
DILUPBiCGStab:  Solving for NNH, Initial residual = 3.262286239e-05, Final residual = 4.27921924e-09, No Iterations 1
DILUPBiCGStab:  Solving for NO, Initial residual = 2.642543873e-05, Final residual = 5.144160726e-10, No Iterations 1
DILUPBiCGStab:  Solving for NO2, Initial residual = 6.943475198e-05, Final residual = 1.220183034e-09, No Iterations 1
DILUPBiCGStab:  Solving for N2O, Initial residual = 2.83234693e-05, Final residual = 6.884525224e-10, No Iterations 1
DILUPBiCGStab:  Solving for HNO, Initial residual = 2.686316997e-05, Final residual = 1.214126669e-09, No Iterations 1
DILUPBiCGStab:  Solving for HCN, Initial residual = 2.673884012e-05, Final residual = 5.005593738e-10, No Iterations 1
DILUPBiCGStab:  Solving for N2H3, Initial residual = 1.461550297e-05, Final residual = 7.870062347e-10, No Iterations 1
DILUPBiCGStab:  Solving for CH2CHO, Initial residual = 2.636327381e-05, Final residual = 4.843763089e-10, No Iterations 1
DILUPBiCGStab:  Solving for AR, Initial residual = 1.834760809e-44, Final residual = 1.834760809e-44, No Iterations 0
DICPCG:  Solving for G, Initial residual = 0.00172315136, Final residual = 9.719549225e-06, No Iterations 191
DILUPBiCGStab:  Solving for h, Initial residual = 4.392927012e-05, Final residual = 2.026428957e-09, No Iterations 1
min/max(T) = 291, 2000
DICPCG:  Solving for p, Initial residual = 0.05993813226, Final residual = 0.0005437201195, No Iterations 15
diagonal:  Solving for rho, Initial residual = 0, Final residual = 0, No Iterations 0
time step continuity errors : sum local = 3.038448318e-08, global = 6.722565362e-12, cumulative = 2.137348499e-07
DICPCG:  Solving for p, Initial residual = 0.0005347931251, Final residual = 9.983519502e-07, No Iterations 28
diagonal:  Solving for rho, Initial residual = 0, Final residual = 0, No Iterations 0
time step continuity errors : sum local = 5.67605394e-11, global = 2.836808144e-12, cumulative = 2.137376867e-07
ExecutionTime = 1913.53 s  ClockTime = 1913 s

Courant Number mean: 0.002799211419 max: 0.4995149646
deltaT = 1.126615568e-05
Time = 0.004761237606

diagonal:  Solving for rho, Initial residual = 0, Final residual = 0, No Iterations 0
DILUPBiCGStab:  Solving for Ux, Initial residual = 0.04178240335, Final residual = 2.077384406e-07, No Iterations 1
DILUPBiCGStab:  Solving for Uy, Initial residual = 0.001019571434, Final residual = 6.591815191e-09, No Iterations 1
DILUPBiCGStab:  Solving for Uz, Initial residual = 0.002773005539, Final residual = 7.880020958e-09, No Iterations 1
DILUPBiCGStab:  Solving for H2, Initial residual = 2.967741728e-05, Final residual = 2.288283307e-09, No Iterations 1
DILUPBiCGStab:  Solving for H, Initial residual = 3.108025473e-05, Final residual = 2.385841138e-09, No Iterations 1
DILUPBiCGStab:  Solving for O, Initial residual = 2.782430363e-05, Final residual = 1.321391316e-09, No Iterations 1
DILUPBiCGStab:  Solving for O2, Initial residual = 1.000155109e-05, Final residual = 2.420468649e-10, No Iterations 1
DILUPBiCGStab:  Solving for OH, Initial residual = 2.395996142e-05, Final residual = 1.089150865e-09, No Iterations 1
DILUPBiCGStab:  Solving for H2O, Initial residual = 2.712382272e-05, Final residual = 5.203951294e-10, No Iterations 1
DILUPBiCGStab:  Solving for HO2, Initial residual = 3.828557554e-05, Final residual = 1.214356088e-09, No Iterations 1
DILUPBiCGStab:  Solving for H2O2, Initial residual = 6.964135218e-05, Final residual = 1.512631326e-09, No Iterations 1
DILUPBiCGStab:  Solving for C, Initial residual = 2.681060529e-05, Final residual = 5.024954002e-10, No Iterations 1
DILUPBiCGStab:  Solving for CH, Initial residual = 3.10197453e-05, Final residual = 4.192524896e-09, No Iterations 1
DILUPBiCGStab:  Solving for CH2, Initial residual = 2.898178766e-09, Final residual = 2.898178766e-09, No Iterations 0
DILUPBiCGStab:  Solving for CH2(S), Initial residual = 1.024716945e-08, Final residual = 1.249465676e-09, No Iterations 1
DILUPBiCGStab:  Solving for CH3, Initial residual = 1.029398522e-08, Final residual = 3.67305237e-10, No Iterations 1
DILUPBiCGStab:  Solving for CH4, Initial residual = 3.414284813e-08, Final residual = 6.880870918e-11, No Iterations 1
DILUPBiCGStab:  Solving for CO, Initial residual = 2.754981546e-05, Final residual = 1.178109812e-09, No Iterations 1
DILUPBiCGStab:  Solving for CO2, Initial residual = 2.712126715e-05, Final residual = 5.208913903e-10, No Iterations 1
DILUPBiCGStab:  Solving for HCO, Initial residual = 3.382918417e-05, Final residual = 4.263600102e-09, No Iterations 1
DILUPBiCGStab:  Solving for CH2O, Initial residual = 9.971332904e-09, Final residual = 9.971332904e-09, No Iterations 0
DILUPBiCGStab:  Solving for CH2OH, Initial residual = 1.228594591e-07, Final residual = 7.563194052e-10, No Iterations 1
DILUPBiCGStab:  Solving for CH3O, Initial residual = 9.506928291e-09, Final residual = 9.506928291e-09, No Iterations 0
DILUPBiCGStab:  Solving for CH3OH, Initial residual = 3.556011493e-08, Final residual = 8.892504965e-10, No Iterations 1
DILUPBiCGStab:  Solving for C2H2, Initial residual = 2.127004814e-05, Final residual = 9.653488072e-10, No Iterations 1
DILUPBiCGStab:  Solving for C2H3, Initial residual = 2.778368603e-05, Final residual = 1.910533519e-09, No Iterations 1
DILUPBiCGStab:  Solving for C2H4, Initial residual = 1.562841062e-06, Final residual = 6.59590268e-10, No Iterations 1
DILUPBiCGStab:  Solving for C2H5, Initial residual = 1.389971577e-08, Final residual = 5.619102235e-10, No Iterations 1
DILUPBiCGStab:  Solving for C2H6, Initial residual = 2.387682811e-08, Final residual = 6.578760973e-10, No Iterations 1
DILUPBiCGStab:  Solving for HCCO, Initial residual = 3.054305824e-05, Final residual = 3.887544134e-09, No Iterations 1
DILUPBiCGStab:  Solving for N, Initial residual = 4.121557513e-05, Final residual = 5.377167774e-09, No Iterations 1
DILUPBiCGStab:  Solving for NH, Initial residual = 3.943126885e-05, Final residual = 5.294963232e-09, No Iterations 1
DILUPBiCGStab:  Solving for NH2, Initial residual = 4.889278556e-05, Final residual = 5.575809958e-09, No Iterations 1
DILUPBiCGStab:  Solving for NH3, Initial residual = 4.828604273e-05, Final residual = 5.171652654e-09, No Iterations 1
DILUPBiCGStab:  Solving for N2H2, Initial residual = 4.369718409e-05, Final residual = 5.286950016e-09, No Iterations 1
DILUPBiCGStab:  Solving for NNH, Initial residual = 3.250112207e-05, Final residual = 4.266519936e-09, No Iterations 1
DILUPBiCGStab:  Solving for NO, Initial residual = 2.634772202e-05, Final residual = 5.136269744e-10, No Iterations 1
DILUPBiCGStab:  Solving for NO2, Initial residual = 6.917729975e-05, Final residual = 1.209819119e-09, No Iterations 1
DILUPBiCGStab:  Solving for N2O, Initial residual = 2.82521832e-05, Final residual = 6.850003413e-10, No Iterations 1
DILUPBiCGStab:  Solving for HNO, Initial residual = 2.664214987e-05, Final residual = 1.199185059e-09, No Iterations 1
DILUPBiCGStab:  Solving for HCN, Initial residual = 2.665912249e-05, Final residual = 4.99683978e-10, No Iterations 1
DILUPBiCGStab:  Solving for N2H3, Initial residual = 1.488978317e-05, Final residual = 8.051939521e-10, No Iterations 1
DILUPBiCGStab:  Solving for CH2CHO, Initial residual = 2.628277196e-05, Final residual = 4.833456716e-10, No Iterations 1
DILUPBiCGStab:  Solving for AR, Initial residual = 1.834764867e-44, Final residual = 1.834764867e-44, No Iterations 0
DICPCG:  Solving for G, Initial residual = 0.001720672095, Final residual = 9.387211907e-06, No Iterations 191
DILUPBiCGStab:  Solving for h, Initial residual = 4.379080604e-05, Final residual = 2.0215218e-09, No Iterations 1
min/max(T) = 291, 2000
DICPCG:  Solving for p, Initial residual = 0.0558913801, Final residual = 0.0005270531158, No Iterations 15
diagonal:  Solving for rho, Initial residual = 0, Final residual = 0, No Iterations 0
time step continuity errors : sum local = 3.128183166e-08, global = 4.516802576e-10, cumulative = 2.141893669e-07
DICPCG:  Solving for p, Initial residual = 0.0005148794987, Final residual = 9.217664716e-07, No Iterations 29
diagonal:  Solving for rho, Initial residual = 0, Final residual = 0, No Iterations 0
time step continuity errors : sum local = 5.60621883e-11, global = -4.772498892e-12, cumulative = 2.141845944e-07
ExecutionTime = 1919.08 s  ClockTime = 1919 s

Courant Number mean: 0.002798052956 max: 0.4994027763
deltaT = 1.126615568e-05
Time = 0.004772503762

diagonal:  Solving for rho, Initial residual = 0, Final residual = 0, No Iterations 0
DILUPBiCGStab:  Solving for Ux, Initial residual = 0.04591601795, Final residual = 2.264311819e-07, No Iterations 1
DILUPBiCGStab:  Solving for Uy, Initial residual = 0.001043768649, Final residual = 6.969853902e-09, No Iterations 1
DILUPBiCGStab:  Solving for Uz, Initial residual = 0.003054732518, Final residual = 8.060088748e-09, No Iterations 1
